<?xml version="1.0" encoding="UTF-8"?>

<!-- generated on 2025-01-13 08:47:39 by Eclipse SUMO netedit Version 1.20.0
<configuration xmlns:xsi="http://www.w3.org/2001/XMLSchema-instance" xsi:noNamespaceSchemaLocation="http://sumo.dlr.de/xsd/neteditConfiguration.xsd">

    <input>
        <sumo-net-file value="/Users/chashu/Desktop/dev/sumorl-venv/app/data/tanimachi9/tanimachi9.net.xml"/>
    </input>

    <output>
        <output-file value="/Users/chashu/Desktop/dev/sumorl-venv/app/data/tanimachi9/tanimachi9.net.xml"/>
    </output>

    <processing>
        <geometry.min-radius.fix.railways value="false"/>
        <geometry.max-grade.fix value="false"/>
        <offset.disable-normalization value="true"/>
        <lefthand value="1"/>
    </processing>

    <junctions>
        <no-turnarounds value="true"/>
        <junctions.corner-detail value="5"/>
        <junctions.limit-turn-speed value="5.50"/>
        <rectangular-lane-cut value="0"/>
    </junctions>

    <pedestrian>
        <walkingareas value="0"/>
    </pedestrian>

</configuration>
-->

<net version="1.20" junctionCornerDetail="5" lefthand="true" limitTurnSpeed="5.50" xmlns:xsi="http://www.w3.org/2001/XMLSchema-instance" xsi:noNamespaceSchemaLocation="http://sumo.dlr.de/xsd/net_file.xsd">

    <location netOffset="0.00,0.00" convBoundary="-142.45,-148.33,134.52,153.31" origBoundary="-10000000000.00,-10000000000.00,10000000000.00,10000000000.00" projParameter="!"/>

    <edge id=":n0_0" function="internal">
        <lane id=":n0_0_0" index="0" speed="13.89" length="7.95" shape="37.77,135.07 36.31,127.30"/>
        <lane id=":n0_0_1" index="1" speed="13.89" length="7.95" shape="34.62,135.63 33.15,127.81"/>
        <lane id=":n0_0_2" index="2" speed="13.89" length="7.95" shape="31.47,136.18 29.99,128.32"/>
    </edge>
    <edge id=":n0_3" function="internal">
        <lane id=":n0_3_0" index="0" speed="13.89" length="9.33" shape="31.47,136.18 30.40,133.81,0.00 28.77,132.57,0.00 27.14,131.33,0.00 26.09,128.95,0.01"/>
        <lane id=":n0_3_1" index="1" speed="13.89" length="9.33" shape="28.32,136.74 27.25,134.35,0.00 25.61,133.10,0.00 23.98,131.86,0.00 22.93,129.46,0.00"/>
    </edge>
    <edge id=":n1_0" function="internal">
        <lane id=":n1_0_0" index="0" speed="13.89" length="8.23" shape="16.07,129.92,0.00 17.16,138.10"/>
        <lane id=":n1_0_1" index="1" speed="13.89" length="8.23" shape="19.22,129.39,0.00 20.31,137.53"/>
    </edge>
    <edge id=":n1_2" function="internal">
        <lane id=":n1_2_0" index="0" speed="13.89" length="8.52" shape="9.54,131.03 10.86,139.24"/>
        <lane id=":n1_2_1" index="1" speed="13.89" length="8.52" shape="12.69,130.50 14.01,138.67"/>
        <lane id=":n1_2_2" index="2" speed="13.89" length="8.52" shape="12.69,130.50 13.59,132.91 14.91,134.30 16.23,135.69 17.16,138.10"/>
    </edge>
    <edge id=":s0_0" function="internal">
        <lane id=":s0_0_0" index="0" speed="13.89" length="15.94" shape="-33.42,-131.35 -33.33,-126.78 -34.45,-123.62 -35.61,-120.46 -35.61,-115.87"/>
        <lane id=":s0_0_1" index="1" speed="13.89" length="15.94" shape="-30.28,-131.95 -30.18,-127.35 -31.30,-124.18 -32.45,-121.01 -32.45,-116.40"/>
        <lane id=":s0_0_2" index="2" speed="13.89" length="15.94" shape="-27.13,-132.54 -27.04,-127.93 -28.15,-124.75 -29.30,-121.56 -29.30,-116.93"/>
    </edge>
    <edge id=":s0_3" function="internal">
        <lane id=":s0_3_0" index="0" speed="13.89" length="15.16" shape="-27.13,-132.54 -26.54,-128.11,-0.01 -26.51,-125.02,-0.01 -26.50,-121.93,-0.02 -25.99,-117.48,-0.03"/>
        <lane id=":s0_3_1" index="1" speed="13.89" length="15.16" shape="-27.13,-132.54 -26.04,-128.18,-0.01 -24.93,-125.28,-0.01 -23.84,-122.38,-0.02 -22.83,-118.01,-0.03"/>
    </edge>
    <edge id=":s1_0" function="internal">
        <lane id=":s1_0_0" index="0" speed="13.89" length="13.92" shape="-16.23,-120.81,0.00 -16.61,-124.91,0.00 -16.41,-127.75,0.00 -16.21,-130.60,0.00 -16.61,-134.69"/>
        <lane id=":s1_0_1" index="1" speed="13.89" length="13.92" shape="-19.38,-120.28,0.00 -19.76,-124.37,0.00 -19.56,-127.21,0.00 -19.37,-130.05,0.00 -19.76,-134.14"/>
    </edge>
    <edge id=":s1_2" function="internal">
        <lane id=":s1_2_0" index="0" speed="13.89" length="13.97" shape="-7.60,-122.27 -10.30,-135.78"/>
        <lane id=":s1_2_1" index="1" speed="13.89" length="13.97" shape="-10.75,-121.74 -13.46,-135.23"/>
        <lane id=":s1_2_2" index="2" speed="13.89" length="13.97" shape="-10.75,-121.74 -11.98,-125.74 -13.66,-128.22 -15.35,-130.70 -16.61,-134.69"/>
    </edge>
    <edge id=":ts_0" function="internal">
        <lane id=":ts_0_0" index="0" speed="12.25" length="34.41" shape="30.04,-21.57 20.76,-21.52 13.64,-24.53 8.67,-30.60 5.86,-39.73"/>
    </edge>
    <edge id=":ts_1" function="internal">
        <lane id=":ts_1_0" index="0" speed="13.89" length="65.92" shape="30.04,-21.57 13.05,-18.67 -2.11,-15.89 -17.31,-13.58 -34.44,-12.12"/>
        <lane id=":ts_1_1" index="1" speed="13.89" length="65.92" shape="30.55,-18.41 13.50,-15.51 -1.77,-12.71 -17.10,-10.39 -34.29,-8.93"/>
        <lane id=":ts_1_2" index="2" speed="13.89" length="65.92" shape="31.05,-15.25 13.95,-12.34 -1.44,-9.53 -16.89,-7.20 -34.13,-5.73"/>
        <lane id=":ts_1_3" index="3" speed="13.89" length="65.92" shape="31.56,-12.09 14.40,-9.18 -1.11,-6.35 -16.68,-4.01 -33.97,-2.53"/>
        <lane id=":ts_1_4" index="4" speed="13.89" length="65.92" shape="32.06,-8.93 14.85,-6.01 -0.78,-3.18 -16.47,-0.82 -33.82,0.66"/>
    </edge>
    <edge id=":ts_6" function="internal">
        <lane id=":ts_6_0" index="0" speed="13.89" length="65.86" shape="32.06,-8.93 14.13,-3.69 2.28,5.64 -3.52,19.05 -3.24,36.54"/>
    </edge>
    <edge id=":ts_7" function="internal">
        <lane id=":ts_7_0" index="0" speed="11.56" length="30.80" shape="20.97,32.43 20.60,23.35 22.82,16.46 27.61,11.77 34.97,9.29"/>
        <lane id=":ts_7_1" index="1" speed="12.04" length="33.50" shape="20.97,32.43 20.38,21.96 22.44,14.09 27.13,8.81 34.47,6.13"/>
        <lane id=":ts_7_2" index="2" speed="12.51" length="36.25" shape="20.97,32.43 20.16,20.58 22.06,11.72 26.66,5.85 33.96,2.97"/>
    </edge>
    <edge id=":ts_10" function="internal">
        <lane id=":ts_10_0" index="0" speed="13.89" length="73.74" shape="20.97,32.43 5.86,-39.73"/>
        <lane id=":ts_10_1" index="1" speed="13.89" length="73.74" shape="17.81,32.97 2.70,-39.22"/>
    </edge>
    <edge id=":ts_12" function="internal">
        <lane id=":ts_12_0" index="0" speed="13.89" length="40.61" shape="14.65,33.50 9.30,16.96 -0.58,5.44 -7.92,2.13"/>
        <lane id=":ts_12_1" index="1" speed="13.89" length="37.95" shape="14.65,33.50 9.51,18.35 -0.29,7.82 -7.29,4.96"/>
    </edge>
    <edge id=":ts_28" function="internal">
        <lane id=":ts_28_0" index="0" speed="13.89" length="26.80" shape="-7.92,2.13 -15.01,-1.06 -33.97,-2.53"/>
    </edge>
    <edge id=":ts_29" function="internal">
        <lane id=":ts_29_0" index="0" speed="13.89" length="27.16" shape="-7.29,4.96 -14.73,1.93 -33.82,0.66"/>
    </edge>
    <edge id=":ts_14" function="internal">
        <lane id=":ts_14_0" index="0" speed="12.85" length="34.76" shape="-32.86,20.26 -22.42,20.88 -14.53,23.90 -9.19,29.29 -6.39,37.07"/>
    </edge>
    <edge id=":ts_15" function="internal">
        <lane id=":ts_15_0" index="0" speed="13.89" length="68.07" shape="-32.86,20.26 -15.20,18.59 1.16,15.80 17.47,12.50 34.97,9.29"/>
        <lane id=":ts_15_1" index="1" speed="13.89" length="68.07" shape="-33.02,17.06 -15.41,15.40 0.83,12.62 17.02,9.33 34.47,6.13"/>
        <lane id=":ts_15_2" index="2" speed="13.89" length="68.07" shape="-33.17,13.86 -15.62,12.21 0.50,9.44 16.57,6.17 33.96,2.97"/>
        <lane id=":ts_15_3" index="3" speed="13.89" length="68.07" shape="-33.33,10.67 -15.83,9.02 0.17,6.27 16.12,3.00 33.46,-0.19"/>
        <lane id=":ts_15_4" index="4" speed="13.89" length="68.07" shape="-33.48,7.47 -16.04,5.83 -0.16,3.09 15.67,-0.16 32.95,-3.35"/>
    </edge>
    <edge id=":ts_20" function="internal">
        <lane id=":ts_20_0" index="0" speed="13.89" length="71.05" shape="-33.48,7.47 -13.26,4.06 -1.12,-4.32 3.88,-18.48 2.70,-39.22"/>
    </edge>
    <edge id=":ts_21" function="internal">
        <lane id=":ts_21_0" index="0" speed="11.02" length="30.33" shape="-22.12,-35.17 -21.50,-25.38 -23.34,-18.28 -27.66,-13.86 -34.44,-12.12"/>
        <lane id=":ts_21_1" index="1" speed="11.53" length="33.31" shape="-22.12,-35.17 -21.29,-23.99 -23.04,-15.89 -27.37,-10.87 -34.29,-8.93"/>
        <lane id=":ts_21_2" index="2" speed="12.02" length="36.34" shape="-22.12,-35.17 -21.08,-22.60 -22.73,-13.50 -27.08,-7.88 -34.13,-5.73"/>
    </edge>
    <edge id=":ts_24" function="internal">
        <lane id=":ts_24_0" index="0" speed="13.89" length="73.93" shape="-22.12,-35.17 -6.39,37.07"/>
        <lane id=":ts_24_1" index="1" speed="13.89" length="73.93" shape="-18.97,-35.69 -3.24,36.54"/>
    </edge>
    <edge id=":ts_26" function="internal">
        <lane id=":ts_26_0" index="0" speed="13.89" length="42.94" shape="-15.81,-36.20 -10.05,-17.92 0.08,-5.83 7.49,-2.81"/>
        <lane id=":ts_26_1" index="1" speed="13.89" length="40.40" shape="-15.81,-36.20 -10.28,-19.30 -0.31,-8.20 6.91,-5.53"/>
    </edge>
    <edge id=":ts_30" function="internal">
        <lane id=":ts_30_0" index="0" speed="13.89" length="26.53" shape="7.49,-2.81 14.58,0.08 33.46,-0.19"/>
    </edge>
    <edge id=":ts_31" function="internal">
        <lane id=":ts_31_0" index="0" speed="13.89" length="26.52" shape="6.91,-5.53 14.10,-2.88 32.95,-3.35"/>
    </edge>

    <edge id="e0_ts" from="e0" to="ts" priority="-1" shape="134.30,-22.91 32.53,-7.38">
        <lane id="e0_ts_0" index="0" speed="13.89" length="103.22" shape="132.13,-37.15 30.04,-21.57"/>
        <lane id="e0_ts_1" index="1" speed="13.89" length="103.22" shape="132.61,-33.98 30.55,-18.41"/>
        <lane id="e0_ts_2" index="2" speed="13.89" length="103.22" shape="133.09,-30.82 31.05,-15.25"/>
        <lane id="e0_ts_3" index="3" speed="13.89" length="103.22" shape="133.58,-27.66 31.56,-12.09"/>
        <lane id="e0_ts_4" index="4" speed="13.89" length="103.22" shape="134.06,-24.49 32.06,-8.93"/>
    </edge>
    <edge id="n01_n0" from="n01" to="n0" priority="-1" shape="29.47,152.42 26.69,136.73">
        <lane id="n01_n0_0" index="0" speed="13.89" length="15.64" shape="40.50,150.47 37.77,135.07"/>
        <lane id="n01_n0_1" index="1" speed="13.89" length="15.64" shape="37.35,151.02 34.62,135.63"/>
        <lane id="n01_n0_2" index="2" speed="13.89" length="15.64" shape="34.20,151.58 31.47,136.18"/>
        <lane id="n01_n0_3" index="3" speed="13.89" length="15.64" shape="31.05,152.14 28.32,136.74"/>
    </edge>
    <edge id="n0_s1" from="n0" to="s1" priority="-1" shape="21.34,129.66 6.96,44.77,-5.96 -7.61,-41.22,-6.09 -20.96,-120.01">
        <lane id="n0_s1_0" index="0" speed="13.89" length="253.75" shape="26.09,128.95,0.01 11.69,43.97,-5.96 -2.88,-42.02,-6.09 -16.23,-120.81,0.00"/>
        <lane id="n0_s1_1" index="1" speed="13.89" length="253.75" shape="22.93,129.46,0.00 8.54,44.50,-5.96 -6.03,-41.49,-6.09 -19.38,-120.28,0.00"/>
    </edge>
    <edge id="n0_ts" from="n0" to="ts" priority="-1" shape="28.46,128.88 13.04,33.54">
        <lane id="n0_ts_0" index="0" speed="13.89" length="96.07" shape="36.31,127.30 20.97,32.43"/>
        <lane id="n0_ts_1" index="1" speed="13.89" length="96.07" shape="33.15,127.81 17.81,32.97"/>
        <lane id="n0_ts_2" index="2" speed="13.89" length="96.07" shape="29.99,128.32 14.65,33.50"/>
    </edge>
    <edge id="n1_n11" from="n1" to="n11" priority="-1" shape="21.88,137.24 24.79,153.31">
        <lane id="n1_n11_0" index="0" speed="13.89" length="16.33" shape="10.86,139.24 13.77,155.31"/>
        <lane id="n1_n11_1" index="1" speed="13.89" length="16.33" shape="14.01,138.67 16.92,154.74"/>
        <lane id="n1_n11_2" index="2" speed="13.89" length="16.33" shape="17.16,138.10 20.07,154.17"/>
        <lane id="n1_n11_3" index="3" speed="13.89" length="16.33" shape="20.31,137.53 23.22,153.60"/>
    </edge>
    <edge id="s01_s0" from="s01" to="s0" priority="-1" shape="-28.24,-147.01 -25.56,-132.84">
        <lane id="s01_s0_0" index="0" speed="13.89" length="14.42" shape="-36.10,-145.52 -33.42,-131.35"/>
        <lane id="s01_s0_1" index="1" speed="13.89" length="14.42" shape="-32.96,-146.12 -30.28,-131.95"/>
        <lane id="s01_s0_2" index="2" speed="13.89" length="14.42" shape="-29.81,-146.71 -27.13,-132.54"/>
    </edge>
    <edge id="s0_n1" from="s0" to="n1" priority="-1" shape="-21.32,-118.65 -8.13,-41.03,-6.09 6.52,45.14,-5.96 20.80,129.12">
        <lane id="s0_n1_0" index="0" speed="13.89" length="251.39" shape="-25.99,-117.48,-0.03 -12.86,-40.23,-6.09 1.79,45.94,-5.96 16.07,129.92,0.00"/>
        <lane id="s0_n1_1" index="1" speed="13.89" length="251.39" shape="-22.83,-118.01,-0.03 -9.71,-40.76,-6.09 4.94,45.41,-5.96 19.22,129.39,0.00"/>
    </edge>
    <edge id="s0_ts" from="s0" to="ts" priority="-1" shape="-27.72,-117.19 -14.15,-35.99">
        <lane id="s0_ts_0" index="0" speed="13.89" length="81.83" shape="-35.61,-115.87 -22.12,-35.17"/>
        <lane id="s0_ts_1" index="1" speed="13.89" length="81.83" shape="-32.45,-116.40 -18.97,-35.69"/>
        <lane id="s0_ts_2" index="2" speed="13.89" length="81.83" shape="-29.30,-116.93 -15.81,-36.20"/>
    </edge>
    <edge id="s1_s11" from="s1" to="s11" priority="-1" shape="-21.34,-133.87 -23.84,-148.33">
        <lane id="s1_s11_0" index="0" speed="13.89" length="14.67" shape="-10.30,-135.78 -12.80,-150.24"/>
        <lane id="s1_s11_1" index="1" speed="13.89" length="14.67" shape="-13.46,-135.23 -15.96,-149.69"/>
        <lane id="s1_s11_2" index="2" speed="13.89" length="14.67" shape="-16.61,-134.69 -19.11,-149.15"/>
        <lane id="s1_s11_3" index="3" speed="13.89" length="14.67" shape="-19.76,-134.14 -22.26,-148.60"/>
    </edge>
    <edge id="ts_e1" from="ts" to="e1" priority="-1" shape="32.70,-4.93 134.52,-21.20">
        <lane id="ts_e1_0" index="0" speed="13.89" length="103.11" shape="34.97,9.29 136.79,-6.98"/>
        <lane id="ts_e1_1" index="1" speed="13.89" length="103.11" shape="34.47,6.13 136.29,-10.14"/>
        <lane id="ts_e1_2" index="2" speed="13.89" length="103.11" shape="33.96,2.97 135.78,-13.30"/>
        <lane id="ts_e1_3" index="3" speed="13.89" length="103.11" shape="33.46,-0.19 135.28,-16.46"/>
        <lane id="ts_e1_4" index="4" speed="13.89" length="103.11" shape="32.95,-3.35 134.77,-19.62"/>
    </edge>
    <edge id="ts_n1" from="ts" to="n1" priority="-1" shape="-1.66,36.27 14.37,130.81">
        <lane id="ts_n1_0" index="0" speed="13.89" length="95.30" shape="-6.39,37.07 9.54,131.03"/>
        <lane id="ts_n1_1" index="1" speed="13.89" length="95.30" shape="-3.24,36.54 12.69,130.50"/>
    </edge>
    <edge id="ts_s1" from="ts" to="s1" priority="-1" shape="1.12,-38.96 -12.41,-121.96">
        <lane id="ts_s1_0" index="0" speed="13.89" length="83.62" shape="5.86,-39.73 -7.60,-122.27"/>
        <lane id="ts_s1_1" index="1" speed="13.89" length="83.62" shape="2.70,-39.22 -10.75,-121.74"/>
    </edge>
    <edge id="ts_w1" from="ts" to="w1" priority="-1" shape="-33.74,2.26 -142.24,7.57">
        <lane id="ts_w1_0" index="0" speed="13.89" length="108.63" shape="-34.44,-12.12 -142.94,-6.81"/>
        <lane id="ts_w1_1" index="1" speed="13.89" length="108.63" shape="-34.29,-8.93 -142.79,-3.62"/>
        <lane id="ts_w1_2" index="2" speed="13.89" length="108.63" shape="-34.13,-5.73 -142.63,-0.42"/>
        <lane id="ts_w1_3" index="3" speed="13.89" length="108.63" shape="-33.97,-2.53 -142.47,2.78"/>
        <lane id="ts_w1_4" index="4" speed="13.89" length="108.63" shape="-33.82,0.66 -142.32,5.97"/>
    </edge>
    <edge id="w0_ts" from="w0" to="ts" priority="-1" shape="-142.45,11.12 -33.71,5.88">
        <lane id="w0_ts_0" index="0" speed="13.89" length="109.02" shape="-141.76,25.50 -32.86,20.26"/>
        <lane id="w0_ts_1" index="1" speed="13.89" length="109.02" shape="-141.91,22.31 -33.02,17.06"/>
        <lane id="w0_ts_2" index="2" speed="13.89" length="109.02" shape="-142.06,19.11 -33.17,13.86"/>
        <lane id="w0_ts_3" index="3" speed="13.89" length="109.02" shape="-142.22,15.91 -33.33,10.67"/>
        <lane id="w0_ts_4" index="4" speed="13.89" length="109.02" shape="-142.37,12.72 -33.48,7.47"/>
    </edge>

    <tlLogic id="tl" type="static" programID="0" offset="0">
        <phase duration="51.60" state="GGGGGGrrrrrrrrGGGGGGrrrrrrrr"/>
        <phase duration="4"  state="yyyyyyrrrrrrrryyyyyyrrrrrrrr"/>
        <phase duration="6"  state="rrrrrrrrrrrrrrrrrrrrrrrrrrrr"/>
        <phase duration="16.80" state="rrrrrrGrrrrrrrrrrrrrGrrrrrrr"/>
        <phase duration="4"  state="rrrrrryrrrrrrrrrrrrryrrrrrrr"/>
        <phase duration="6"  state="rrrrrrrrrrrrrrrrrrrrrrrrrrrr"/>
        <phase duration="42" state="rrrrrrrGGGGGggrrrrrrrGGGGGgg"/>
        <phase duration="4"  state="rrrrrrryyyyyyyrrrrrrryyyyyyy"/>
        <phase duration="6"  state="rrrrrrrrrrrrrrrrrrrrrrrrrrrr"/>
        <phase duration="9.60"  state="rrrrrrrrrrrrGGrrrrrrrrrrrrGG"/>
        <phase duration="4"  state="rrrrrrrrrrrryyrrrrrrrrrrrryy"/>
        <phase duration="6"  state="rrrrrrrrrrrrrrrrrrrrrrrrrrrr"/>
    </tlLogic>

    <junction id="e0" type="dead_end" x="134.30" y="-22.91" incLanes="" intLanes="" shape="134.30,-22.91 131.89,-38.73"/>
    <junction id="e1" type="dead_end" x="134.52" y="-21.20" incLanes="ts_e1_0 ts_e1_1 ts_e1_2 ts_e1_3 ts_e1_4" intLanes="" shape="137.04,-5.40 134.52,-21.20"/>
    <junction id="n0" type="priority" x="25.50" y="131.76" incLanes="n01_n0_0 n01_n0_1 n01_n0_2 n01_n0_3" intLanes=":n0_0_0 :n0_0_1 :n0_0_2 :n0_3_0 :n0_3_1" shape="39.35,134.79 26.74,137.02 25.16,134.13 22.91,132.61 21.96,131.50 21.35,129.72 37.89,127.04">
        <request index="0" response="00000" foes="00000" cont="0"/>
        <request index="1" response="00000" foes="00000" cont="0"/>
        <request index="2" response="00000" foes="00000" cont="0"/>
        <request index="3" response="00000" foes="00000" cont="0"/>
        <request index="4" response="00000" foes="00000" cont="0"/>
    </junction>
    <junction id="n01" type="dead_end" x="29.47" y="152.42" incLanes="" intLanes="" shape="29.47,152.42 42.07,150.19"/>
    <junction id="n1" type="priority" x="19.02" y="132.39" incLanes="s0_n1_0 s0_n1_1 ts_n1_0 ts_n1_1" intLanes=":n1_0_0 :n1_0_1 :n1_2_0 :n1_2_1 :n1_2_2" shape="21.88,137.24 9.28,139.52 7.96,131.30 20.80,129.12">
        <request index="0" response="11100" foes="11100" cont="0"/>
        <request index="1" response="11100" foes="11100" cont="0"/>
        <request index="2" response="00000" foes="00011" cont="0"/>
        <request index="3" response="00000" foes="00011" cont="0"/>
        <request index="4" response="00000" foes="00011" cont="0"/>
    </junction>
    <junction id="n11" type="dead_end" x="24.79" y="153.31" incLanes="n1_n11_0 n1_n11_1 n1_n11_2 n1_n11_3" intLanes="" shape="12.19,155.59 24.79,153.31"/>
    <junction id="s0" type="priority" x="-24.87" y="-122.89" incLanes="s01_s0_0 s01_s0_1 s01_s0_2" intLanes=":s0_0_0 :s0_0_1 :s0_0_2 :s0_3_0 :s0_3_1" shape="-21.26,-118.27 -37.19,-115.61 -37.37,-118.89 -36.87,-121.33 -36.03,-123.34 -35.20,-125.35 -34.74,-127.78 -34.99,-131.06 -25.56,-132.84 -24.84,-129.69 -24.10,-127.41 -23.36,-125.56 -22.62,-123.72 -21.92,-121.43">
        <request index="0" response="00000" foes="00000" cont="0"/>
        <request index="1" response="00000" foes="00000" cont="0"/>
        <request index="2" response="00000" foes="00000" cont="0"/>
        <request index="3" response="00000" foes="00000" cont="0"/>
        <request index="4" response="00000" foes="00000" cont="0"/>
    </junction>
    <junction id="s01" type="dead_end" x="-28.24" y="-147.01" incLanes="" intLanes="" shape="-28.24,-147.01 -37.67,-145.23"/>
    <junction id="s1" type="priority" x="-18.24" y="-125.28" incLanes="n0_s1_0 n0_s1_1 ts_s1_0 ts_s1_1" intLanes=":s1_0_0 :s1_0_1 :s1_2_0 :s1_2_1 :s1_2_2" shape="-6.02,-122.54 -20.96,-120.01 -21.31,-122.94 -21.31,-125.12 -20.97,-128.76 -20.98,-130.95 -21.34,-133.87 -8.73,-136.05">
        <request index="0" response="11100" foes="11100" cont="0"/>
        <request index="1" response="11100" foes="11100" cont="0"/>
        <request index="2" response="00000" foes="00011" cont="0"/>
        <request index="3" response="00000" foes="00011" cont="0"/>
        <request index="4" response="00000" foes="00011" cont="0"/>
    </junction>
    <junction id="s11" type="dead_end" x="-23.84" y="-148.33" incLanes="s1_s11_0 s1_s11_1 s1_s11_2 s1_s11_3" intLanes="" shape="-11.23,-150.51 -23.84,-148.33"/>
    <junction id="ts" type="traffic_light" x="-0.48" y="-1.16" incLanes="e0_ts_0 e0_ts_1 e0_ts_2 e0_ts_3 e0_ts_4 n0_ts_0 n0_ts_1 n0_ts_2 w0_ts_0 w0_ts_1 w0_ts_2 w0_ts_3 w0_ts_4 s0_ts_0 s0_ts_1 s0_ts_2" intLanes=":ts_0_0 :ts_1_0 :ts_1_1 :ts_1_2 :ts_1_3 :ts_1_4 :ts_6_0 :ts_7_0 :ts_7_1 :ts_7_2 :ts_10_0 :ts_10_1 :ts_28_0 :ts_29_0 :ts_14_0 :ts_15_0 :ts_15_1 :ts_15_2 :ts_15_3 :ts_15_4 :ts_20_0 :ts_21_0 :ts_21_1 :ts_21_2 :ts_24_0 :ts_24_1 :ts_30_0 :ts_31_0" shape="29.79,-23.15 35.22,10.87 30.51,12.16 26.83,14.35 24.19,17.45 22.60,21.45 22.05,26.36 22.54,32.17 -7.97,37.34 -9.44,32.31 -11.97,28.27 -15.58,25.20 -20.24,23.10 -25.98,21.99 -32.78,21.85 -34.52,-13.72 -29.45,-14.59 -25.96,-16.58 -23.84,-19.65 -22.90,-23.75 -22.92,-28.86 -23.70,-34.91 7.44,-39.99 8.95,-34.03 11.35,-29.34 14.64,-25.90 18.80,-23.72 23.85,-22.80">
        <request index="0"  response="0000000000000000000000000000" foes="0000000000000000110000000000" cont="0"/>
        <request index="1"  response="1100000000000011000000000000" foes="1111111100000011110000000000" cont="0"/>
        <request index="2"  response="1100000000000011000000000000" foes="1111111100000011110000000000" cont="0"/>
        <request index="3"  response="1100000000000011000000000000" foes="1111111100000011110000000000" cont="0"/>
        <request index="4"  response="1100000000000011000000000000" foes="1111111100000011110000000000" cont="0"/>
        <request index="5"  response="1100000000000011000000000000" foes="1111111100000011110000000000" cont="0"/>
        <request index="6"  response="1100000011111011000000000000" foes="1111000011111011110000000000" cont="0"/>
        <request index="7"  response="0000000011111000000000000000" foes="0000000011111000000000000000" cont="0"/>
        <request index="8"  response="0000000011111000000000000000" foes="0000000011111000000000000000" cont="0"/>
        <request index="9"  response="0000000011111000000000000000" foes="0000000011111000000000000000" cont="0"/>
        <request index="10" response="0000000111111000000001111111" foes="1100000111111000000001111111" cont="0"/>
        <request index="11" response="0000000111111000000001111111" foes="1100000111111000000001111111" cont="0"/>
        <request index="12" response="0011000111111000000001111110" foes="0011000111111000000001111110" cont="1"/>
        <request index="13" response="0011000111111000000001111110" foes="0011000111111000000001111110" cont="1"/>
        <request index="14" response="0000000000000000000000000000" foes="0011000000000000000000000000" cont="0"/>
        <request index="15" response="1100000000000011000000000000" foes="1111000000000011111111000000" cont="0"/>
        <request index="16" response="1100000000000011000000000000" foes="1111000000000011111111000000" cont="0"/>
        <request index="17" response="1100000000000011000000000000" foes="1111000000000011111111000000" cont="0"/>
        <request index="18" response="1100000000000011000000000000" foes="1111000000000011111111000000" cont="0"/>
        <request index="19" response="1100000000000011000000000000" foes="1111000000000011111111000000" cont="0"/>
        <request index="20" response="1100000000000011000000111110" foes="1111000000000011110000111110" cont="0"/>
        <request index="21" response="0000000000000000000000111110" foes="0000000000000000000000111110" cont="0"/>
        <request index="22" response="0000000000000000000000111110" foes="0000000000000000000000111110" cont="0"/>
        <request index="23" response="0000000000000000000000111110" foes="0000000000000000000000111110" cont="0"/>
        <request index="24" response="0000000111111100000001111110" foes="0000000111111111000001111110" cont="0"/>
        <request index="25" response="0000000111111100000001111110" foes="0000000111111111000001111110" cont="0"/>
        <request index="26" response="0000000111111000110001111110" foes="0000000111111000110001111110" cont="1"/>
        <request index="27" response="0000000111111000110001111110" foes="0000000111111000110001111110" cont="1"/>
    </junction>
    <junction id="w0" type="dead_end" x="-142.45" y="11.12" incLanes="" intLanes="" shape="-142.45,11.12 -141.68,27.10"/>
    <junction id="w1" type="dead_end" x="-142.24" y="7.57" incLanes="ts_w1_0 ts_w1_1 ts_w1_2 ts_w1_3 ts_w1_4" intLanes="" shape="-143.02,-8.41 -142.24,7.57"/>

    <junction id=":ts_28_0" type="internal" x="-7.92" y="2.13" incLanes=":ts_12_0 s0_ts_0 s0_ts_1" intLanes=":ts_1_0 :ts_1_1 :ts_1_2 :ts_1_3 :ts_1_4 :ts_6_0 :ts_15_0 :ts_15_1 :ts_15_2 :ts_15_3 :ts_15_4 :ts_20_0 :ts_21_0 :ts_21_1 :ts_21_2 :ts_24_0 :ts_24_1"/>
    <junction id=":ts_29_0" type="internal" x="-7.29" y="4.96" incLanes=":ts_12_1 s0_ts_0 s0_ts_1" intLanes=":ts_1_0 :ts_1_1 :ts_1_2 :ts_1_3 :ts_1_4 :ts_6_0 :ts_15_0 :ts_15_1 :ts_15_2 :ts_15_3 :ts_15_4 :ts_20_0 :ts_21_0 :ts_21_1 :ts_21_2 :ts_24_0 :ts_24_1"/>
    <junction id=":ts_30_0" type="internal" x="7.49" y="-2.81" incLanes=":ts_26_0 n0_ts_0 n0_ts_1" intLanes=":ts_1_0 :ts_1_1 :ts_1_2 :ts_1_3 :ts_1_4 :ts_6_0 :ts_7_0 :ts_7_1 :ts_7_2 :ts_10_0 :ts_10_1 :ts_15_0 :ts_15_1 :ts_15_2 :ts_15_3 :ts_15_4 :ts_20_0"/>
    <junction id=":ts_31_0" type="internal" x="6.91" y="-5.53" incLanes=":ts_26_1 n0_ts_0 n0_ts_1" intLanes=":ts_1_0 :ts_1_1 :ts_1_2 :ts_1_3 :ts_1_4 :ts_6_0 :ts_7_0 :ts_7_1 :ts_7_2 :ts_10_0 :ts_10_1 :ts_15_0 :ts_15_1 :ts_15_2 :ts_15_3 :ts_15_4 :ts_20_0"/>

    <connection from="e0_ts" to="ts_s1" fromLane="0" toLane="0" via=":ts_0_0" tl="tl" linkIndex="0" dir="l" state="O"/>
    <connection from="e0_ts" to="ts_w1" fromLane="0" toLane="0" via=":ts_1_0" tl="tl" linkIndex="1" dir="s" state="O"/>
    <connection from="e0_ts" to="ts_w1" fromLane="1" toLane="1" via=":ts_1_1" tl="tl" linkIndex="2" dir="s" state="O"/>
    <connection from="e0_ts" to="ts_w1" fromLane="2" toLane="2" via=":ts_1_2" tl="tl" linkIndex="3" dir="s" state="O"/>
    <connection from="e0_ts" to="ts_w1" fromLane="3" toLane="3" via=":ts_1_3" tl="tl" linkIndex="4" dir="s" state="O"/>
    <connection from="e0_ts" to="ts_w1" fromLane="4" toLane="4" via=":ts_1_4" tl="tl" linkIndex="5" dir="s" state="O"/>
    <connection from="e0_ts" to="ts_n1" fromLane="4" toLane="1" via=":ts_6_0" tl="tl" linkIndex="6" dir="r" state="o"/>
    <connection from="n01_n0" to="n0_ts" fromLane="0" toLane="0" via=":n0_0_0" dir="s" state="M"/>
    <connection from="n01_n0" to="n0_ts" fromLane="1" toLane="1" via=":n0_0_1" dir="s" state="M"/>
    <connection from="n01_n0" to="n0_ts" fromLane="2" toLane="2" via=":n0_0_2" dir="s" state="M"/>
    <connection from="n01_n0" to="n0_s1" fromLane="2" toLane="0" via=":n0_3_0" dir="s" state="M"/>
    <connection from="n01_n0" to="n0_s1" fromLane="3" toLane="1" via=":n0_3_1" dir="s" state="M"/>
    <connection from="n0_s1" to="s1_s11" fromLane="0" toLane="2" via=":s1_0_0" dir="s" state="m"/>
    <connection from="n0_s1" to="s1_s11" fromLane="1" toLane="3" via=":s1_0_1" dir="s" state="m"/>
    <connection from="n0_ts" to="ts_e1" fromLane="0" toLane="0" via=":ts_7_0" tl="tl" linkIndex="7" dir="l" state="o"/>
    <connection from="n0_ts" to="ts_e1" fromLane="0" toLane="1" via=":ts_7_1" tl="tl" linkIndex="8" dir="l" state="o"/>
    <connection from="n0_ts" to="ts_e1" fromLane="0" toLane="2" via=":ts_7_2" tl="tl" linkIndex="9" dir="l" state="o"/>
    <connection from="n0_ts" to="ts_s1" fromLane="0" toLane="0" via=":ts_10_0" tl="tl" linkIndex="10" dir="s" state="o"/>
    <connection from="n0_ts" to="ts_s1" fromLane="1" toLane="1" via=":ts_10_1" tl="tl" linkIndex="11" dir="s" state="o"/>
    <connection from="n0_ts" to="ts_w1" fromLane="2" toLane="3" via=":ts_12_0" tl="tl" linkIndex="12" dir="r" state="o"/>
    <connection from="n0_ts" to="ts_w1" fromLane="2" toLane="4" via=":ts_12_1" tl="tl" linkIndex="13" dir="r" state="o"/>
    <connection from="s01_s0" to="s0_ts" fromLane="0" toLane="0" via=":s0_0_0" dir="s" state="M"/>
    <connection from="s01_s0" to="s0_ts" fromLane="1" toLane="1" via=":s0_0_1" dir="s" state="M"/>
    <connection from="s01_s0" to="s0_ts" fromLane="2" toLane="2" via=":s0_0_2" dir="s" state="M"/>
    <connection from="s01_s0" to="s0_n1" fromLane="2" toLane="0" via=":s0_3_0" dir="s" state="M"/>
    <connection from="s01_s0" to="s0_n1" fromLane="2" toLane="1" via=":s0_3_1" dir="s" state="M"/>
    <connection from="s0_n1" to="n1_n11" fromLane="0" toLane="2" via=":n1_0_0" dir="s" state="m"/>
    <connection from="s0_n1" to="n1_n11" fromLane="1" toLane="3" via=":n1_0_1" dir="s" state="m"/>
    <connection from="s0_ts" to="ts_w1" fromLane="0" toLane="0" via=":ts_21_0" tl="tl" linkIndex="21" dir="l" state="o"/>
    <connection from="s0_ts" to="ts_w1" fromLane="0" toLane="1" via=":ts_21_1" tl="tl" linkIndex="22" dir="l" state="o"/>
    <connection from="s0_ts" to="ts_w1" fromLane="0" toLane="2" via=":ts_21_2" tl="tl" linkIndex="23" dir="l" state="o"/>
    <connection from="s0_ts" to="ts_n1" fromLane="0" toLane="0" via=":ts_24_0" tl="tl" linkIndex="24" dir="s" state="o"/>
    <connection from="s0_ts" to="ts_n1" fromLane="1" toLane="1" via=":ts_24_1" tl="tl" linkIndex="25" dir="s" state="o"/>
    <connection from="s0_ts" to="ts_e1" fromLane="2" toLane="3" via=":ts_26_0" tl="tl" linkIndex="26" dir="r" state="o"/>
    <connection from="s0_ts" to="ts_e1" fromLane="2" toLane="4" via=":ts_26_1" tl="tl" linkIndex="27" dir="r" state="o"/>