<?xml version="1.0" encoding="UTF-8"?>

<!-- generated on 2024-12-04 14:16:39 by Eclipse SUMO netedit Version 1.20.0
<configuration xmlns:xsi="http://www.w3.org/2001/XMLSchema-instance" xsi:noNamespaceSchemaLocation="http://sumo.dlr.de/xsd/neteditConfiguration.xsd">

    <input>
        <sumo-net-file value="/Users/chashu/Desktop/dev/sumorl-venv/app/data/tanimachi9/tanimachi9.net.xml"/>
    </input>

    <output>
        <output-file value="/Users/chashu/Desktop/dev/sumorl-venv/app/data/tanimachi9/tanimachi9.net.xml"/>
    </output>

    <processing>
        <geometry.min-radius.fix.railways value="false"/>
        <geometry.max-grade.fix value="false"/>
        <offset.disable-normalization value="true"/>
        <lefthand value="1"/>
    </processing>

    <junctions>
        <no-internal-links value="true"/>
        <no-turnarounds value="true"/>
        <junctions.corner-detail value="5"/>
        <junctions.limit-turn-speed value="5.50"/>
        <rectangular-lane-cut value="0"/>
    </junctions>

    <pedestrian>
        <walkingareas value="0"/>
    </pedestrian>

</configuration>
-->

<net version="1.20" junctionCornerDetail="5" lefthand="true" limitTurnSpeed="5.50" xmlns:xsi="http://www.w3.org/2001/XMLSchema-instance" xsi:noNamespaceSchemaLocation="http://sumo.dlr.de/xsd/net_file.xsd">

    <location netOffset="0.00,-0.00" convBoundary="-142.31,-166.83,140.65,159.75" origBoundary="-10000000000.00,-10000000000.00,10000000000.00,10000000000.00" projParameter="!"/>

    <edge id="E0" from="J0" to="clusterJ1_J2_J4" priority="-1" shape="-34.28,-166.14 -30.41,-144.59">
        <lane id="E0_0" index="0" speed="13.89" length="38.47" shape="-42.15,-164.73 -38.28,-143.18"/>
        <lane id="E0_1" index="1" speed="13.89" length="38.47" shape="-39.00,-165.29 -35.13,-143.74"/>
        <lane id="E0_2" index="2" speed="13.89" length="38.47" shape="-35.85,-165.86 -31.98,-144.31"/>
    </edge>
    <edge id="E1" from="J23" to="clusterJ10_J20_J21_J24_#4more" priority="-1" shape="-142.31,10.32 -33.66,5.84">
        <lane id="E1_0" index="0" speed="13.89" length="142.88" shape="-141.72,24.71 -32.16,20.19"/>
        <lane id="E1_1" index="1" speed="13.89" length="142.88" shape="-141.85,21.51 -32.28,16.99"/>
        <lane id="E1_2" index="2" speed="13.89" length="142.88" shape="-141.98,18.31 -32.41,13.80"/>
        <lane id="E1_3" index="3" speed="13.89" length="142.88" shape="-142.11,15.12 -32.53,10.60"/>
        <lane id="E1_4" index="4" speed="13.89" length="142.88" shape="-142.24,11.92 -32.65,7.40"/>
    </edge>
    <edge id="E10" from="clusterJ16_J17_J19" to="clusterJ18_J22_J27" priority="-1" shape="21.69,126.59 1.07,5.48,-4.94 -20.72,-122.51">
        <lane id="E10_0" index="0" speed="13.89" length="265.59" shape="26.40,125.68,-0.00 5.80,4.67,-4.94 -15.99,-123.32,0.00"/>
        <lane id="E10_1" index="1" speed="13.89" length="265.59" shape="23.24,126.19,-0.01 2.65,5.21,-4.94 -19.14,-122.78,0.00"/>
    </edge>
    <edge id="E11" from="clusterJ16_J17_J19" to="clusterJ10_J20_J21_J24_#4more" priority="-1" shape="28.27,125.38 13.54,33.60">
        <lane id="E11_0" index="0" speed="13.89" length="136.53" shape="36.17,124.11 21.49,32.62"/>
        <lane id="E11_1" index="1" speed="13.89" length="136.53" shape="33.01,124.62 18.33,33.15"/>
        <lane id="E11_2" index="2" speed="13.89" length="136.53" shape="29.85,125.13 15.17,33.67"/>
    </edge>
    <edge id="E12" from="clusterJ10_J20_J21_J24_#4more" to="clusterJ18_J22_J27" priority="-1" shape="1.00,-38.27 -13.32,-124.04">
        <lane id="E12_0" index="0" speed="13.89" length="133.67" shape="5.74,-39.04 -8.54,-124.58"/>
        <lane id="E12_1" index="1" speed="13.89" length="133.67" shape="2.59,-38.46 -11.70,-124.05"/>
    </edge>
    <edge id="E13" from="clusterJ18_J22_J27" to="J28" priority="-1" shape="-25.62,-145.66 -29.42,-166.83">
        <lane id="E13_0" index="0" speed="13.89" length="37.50" shape="-14.60,-147.64 -18.40,-168.81"/>
        <lane id="E13_1" index="1" speed="13.89" length="37.50" shape="-17.75,-147.07 -21.55,-168.24"/>
        <lane id="E13_2" index="2" speed="13.89" length="37.50" shape="-20.90,-146.51 -24.70,-167.68"/>
        <lane id="E13_3" index="3" speed="13.89" length="37.50" shape="-24.05,-145.94 -27.85,-167.11"/>
    </edge>
    <edge id="E2" from="clusterJ10_J20_J21_J24_#4more" to="J26" priority="-1" shape="-32.84,2.51 -141.27,6.67">
        <lane id="E2_0" index="0" speed="13.89" length="141.32" shape="-33.39,-11.88 -141.82,-7.72"/>
        <lane id="E2_1" index="1" speed="13.89" length="141.32" shape="-33.27,-8.68 -141.70,-4.52"/>
        <lane id="E2_2" index="2" speed="13.89" length="141.32" shape="-33.14,-5.48 -141.58,-1.32"/>
        <lane id="E2_3" index="3" speed="13.89" length="141.32" shape="-33.02,-2.29 -141.45,1.87"/>
        <lane id="E2_4" index="4" speed="13.89" length="141.32" shape="-32.90,0.91 -141.33,5.07"/>
    </edge>
    <edge id="E3" from="clusterJ10_J20_J21_J24_#4more" to="J7" priority="-1" shape="33.16,-4.99 140.43,-21.63">
        <lane id="E3_0" index="0" speed="13.89" length="142.17" shape="35.36,9.24 142.64,-7.40"/>
        <lane id="E3_1" index="1" speed="13.89" length="142.17" shape="34.87,6.08 142.15,-10.56"/>
        <lane id="E3_2" index="2" speed="13.89" length="142.17" shape="34.38,2.92 141.66,-13.72"/>
        <lane id="E3_3" index="3" speed="13.89" length="142.17" shape="33.89,-0.25 141.17,-16.89"/>
        <lane id="E3_4" index="4" speed="13.89" length="142.17" shape="33.40,-3.41 140.68,-20.05"/>
    </edge>
    <edge id="E4" from="J8" to="clusterJ10_J20_J21_J24_#4more" priority="-1" shape="140.65,-24.72 32.99,-7.18">
        <lane id="E4_0" index="0" speed="13.89" length="142.86" shape="138.33,-38.93 30.61,-21.38"/>
        <lane id="E4_1" index="1" speed="13.89" length="142.86" shape="138.85,-35.77 31.11,-18.22"/>
        <lane id="E4_2" index="2" speed="13.89" length="142.86" shape="139.36,-32.62 31.60,-15.06"/>
        <lane id="E4_3" index="3" speed="13.89" length="142.86" shape="139.88,-29.46 32.09,-11.90"/>
        <lane id="E4_4" index="4" speed="13.89" length="142.86" shape="140.39,-26.30 32.58,-8.73"/>
    </edge>
    <edge id="E5" from="clusterJ1_J2_J4" to="clusterJ10_J20_J21_J24_#4more" priority="-1" shape="-28.63,-119.46 -14.25,-35.72">
        <lane id="E5_0" index="0" speed="13.89" length="131.61" shape="-36.51,-118.11 -22.07,-34.00"/>
        <lane id="E5_1" index="1" speed="13.89" length="131.61" shape="-33.36,-118.65 -18.92,-34.57"/>
        <lane id="E5_2" index="2" speed="13.89" length="131.61" shape="-30.21,-119.19 -15.77,-35.14"/>
    </edge>
    <edge id="E6" from="clusterJ1_J2_J4" to="clusterJ11_J12_J5" priority="-1" shape="-21.31,-121.19 0.91,9.47,-5.02 20.85,126.71">
        <lane id="E6_0" index="0" speed="13.89" length="265.85" shape="-25.96,-119.92,-0.02 -3.82,10.27,-5.02 16.12,127.51,0.00"/>
        <lane id="E6_1" index="1" speed="13.89" length="265.85" shape="-22.81,-120.46,-0.02 -0.67,9.74,-5.02 19.27,126.98,0.00"/>
    </edge>
    <edge id="E7" from="clusterJ10_J20_J21_J24_#4more" to="clusterJ11_J12_J5" priority="-1" shape="-1.67,36.57 13.89,128.09">
        <lane id="E7_0" index="0" speed="13.89" length="136.64" shape="-6.42,37.27 9.13,128.70"/>
        <lane id="E7_1" index="1" speed="13.89" length="136.64" shape="-3.26,36.74 12.28,128.17"/>
    </edge>
    <edge id="E8" from="clusterJ11_J12_J5" to="J13" priority="-1" shape="22.57,139.80 25.57,159.71">
        <lane id="E8_0" index="0" speed="13.89" length="29.10" shape="11.50,141.47 14.50,161.38"/>
        <lane id="E8_1" index="1" speed="13.89" length="29.10" shape="14.66,140.99 17.66,160.90"/>
        <lane id="E8_2" index="2" speed="13.89" length="29.10" shape="17.82,140.52 20.82,160.43"/>
        <lane id="E8_3" index="3" speed="13.89" length="29.10" shape="20.99,140.04 23.99,159.95"/>
    </edge>
    <edge id="E9" from="J15" to="clusterJ16_J17_J19" priority="-1" shape="25.66,159.75 22.53,138.88">
        <lane id="E9_0" index="0" speed="13.89" length="29.85" shape="39.90,157.61 36.77,136.74"/>
        <lane id="E9_1" index="1" speed="13.89" length="29.85" shape="36.74,158.09 33.61,137.22"/>
        <lane id="E9_2" index="2" speed="13.89" length="29.85" shape="33.57,158.56 30.44,137.69"/>
        <lane id="E9_3" index="3" speed="13.89" length="29.85" shape="30.41,159.04 27.28,138.17"/>
        <lane id="E9_4" index="4" speed="13.89" length="29.85" shape="27.24,159.51 24.11,138.64"/>
    </edge>

    <junction id="J0" type="dead_end" x="-34.28" y="-166.14" incLanes="" intLanes="" shape="-34.28,-166.14 -43.73,-164.44"/>
    <junction id="J13" type="dead_end" x="25.57" y="159.71" incLanes="E8_0 E8_1 E8_2 E8_3" intLanes="" shape="12.91,161.62 25.57,159.71"/>
    <junction id="J15" type="dead_end" x="25.66" y="159.75" incLanes="" intLanes="" shape="25.66,159.75 41.48,157.38"/>
    <junction id="J23" type="dead_end" x="-142.31" y="10.32" incLanes="" intLanes="" shape="-142.31,10.32 -141.65,26.31"/>
    <junction id="J26" type="dead_end" x="-141.27" y="6.67" incLanes="E2_0 E2_1 E2_2 E2_3 E2_4" intLanes="" shape="-141.88,-9.32 -141.27,6.67"/>
    <junction id="J28" type="dead_end" x="-29.42" y="-166.83" incLanes="E13_0 E13_1 E13_2 E13_3" intLanes="" shape="-16.82,-169.09 -29.42,-166.83"/>
    <junction id="J7" type="dead_end" x="140.43" y="-21.63" incLanes="E3_0 E3_1 E3_2 E3_3 E3_4" intLanes="" shape="142.88,-5.82 140.43,-21.63"/>
    <junction id="J8" type="dead_end" x="140.65" y="-24.72" incLanes="" intLanes="" shape="140.65,-24.72 138.08,-40.51"/>
    <junction id="clusterJ10_J20_J21_J24_#4more" type="priority" x="-0.22" y="-0.96" incLanes="E4_0 E4_1 E4_2 E4_3 E4_4 E11_0 E11_1 E11_2 E1_0 E1_1 E1_2 E1_3 E1_4 E5_0 E5_1 E5_2" intLanes="" shape="30.37,-22.96 35.61,10.82 31.62,11.59 27.51,13.52 23.90,16.31 21.61,20.24 22.08,26.09 23.06,32.36 -7.75,37.49 -8.86,32.05 -10.88,27.76 -14.20,24.00 -19.00,22.12 -24.94,21.76 -32.10,21.79 -33.45,-13.48 -28.51,-14.01 -24.48,-16.26 -22.36,-19.60 -21.63,-23.81 -22.39,-28.80 -23.38,-33.76 7.31,-39.32 8.72,-32.10 11.37,-27.11 14.94,-23.98 19.24,-22.43 24.23,-22.83" customShape="1">
        <request index="0"  response="0000000000000000000000000000" foes="0000000000000000110000000000"/>
        <request index="1"  response="0000000000000000000000000000" foes="1111111100000011110000000000"/>
        <request index="2"  response="0000000000000000000000000000" foes="1111111100000011110000000000"/>
        <request index="3"  response="0000000000000000000000000000" foes="1111111100000011110000000000"/>
        <request index="4"  response="0000000000000000000000000000" foes="1111111100000011110000000000"/>
        <request index="5"  response="0000000000000000000000000000" foes="1111111100000011110000000000"/>
        <request index="6"  response="0000000011111000000000000000" foes="1111000011111011110000000000"/>
        <request index="7"  response="0000000011111000000000000000" foes="0000000011111000000000000000"/>
        <request index="8"  response="0000000011111000000000000000" foes="0000000011111000000000000000"/>
        <request index="9"  response="0000000011111000000000000000" foes="0000000011111000000000000000"/>
        <request index="10" response="0000000111111000000001111111" foes="1100000111111000000001111111"/>
        <request index="11" response="0000000111111000000001111111" foes="1100000111111000000001111111"/>
        <request index="12" response="0011000111111000000001111110" foes="0011000111111000000001111110"/>
        <request index="13" response="0011000111111000000001111110" foes="0011000111111000000001111110"/>
        <request index="14" response="0000000000000000000000000000" foes="0011000000000000000000000000"/>
        <request index="15" response="0000000000000000000000000000" foes="1111000000000011111111000000"/>
        <request index="16" response="0000000000000000000000000000" foes="1111000000000011111111000000"/>
        <request index="17" response="0000000000000000000000000000" foes="1111000000000011111111000000"/>
        <request index="18" response="0000000000000000000000000000" foes="1111000000000011111111000000"/>
        <request index="19" response="0000000000000000000000000000" foes="1111000000000011111111000000"/>
        <request index="20" response="0000000000000000000000111110" foes="1111000000000011110000111110"/>
        <request index="21" response="0000000000000000000000111110" foes="0000000000000000000000111110"/>
        <request index="22" response="0000000000000000000000111110" foes="0000000000000000000000111110"/>
        <request index="23" response="0000000000000000000000111110" foes="0000000000000000000000111110"/>
        <request index="24" response="0000000111111100000001111110" foes="0000000111111111000001111110"/>
        <request index="25" response="0000000111111100000001111110" foes="0000000111111111000001111110"/>
        <request index="26" response="0000000111111000110001111110" foes="0000000111111000110001111110"/>
        <request index="27" response="0000000111111000110001111110" foes="0000000111111000110001111110"/>
    </junction>
    <junction id="clusterJ11_J12_J5" type="priority" x="19.10" y="131.53" incLanes="E6_0 E6_1 E7_0 E7_1" intLanes="" shape="22.57,139.80 9.91,141.71 7.55,128.97 20.85,126.71">
        <request index="0" response="11110000" foes="11110000"/>
        <request index="1" response="11110000" foes="11110000"/>
        <request index="2" response="11110000" foes="11110000"/>
        <request index="3" response="11110000" foes="11110000"/>
        <request index="4" response="00000000" foes="00001111"/>
        <request index="5" response="00000000" foes="00001111"/>
        <request index="6" response="00000000" foes="00001111"/>
        <request index="7" response="00000000" foes="00001111"/>
    </junction>
    <junction id="clusterJ16_J17_J19" type="priority" x="24.16" y="130.28" incLanes="E9_0 E9_1 E9_2 E9_3 E9_4" intLanes="" shape="38.35,136.51 22.53,138.88 21.66,126.44 37.75,123.86 38.08,126.53 38.14,128.52 38.07,130.18 38.00,131.83 38.05,133.83">
        <request index="0" response="00000" foes="00000"/>
        <request index="1" response="00000" foes="00000"/>
        <request index="2" response="00000" foes="00000"/>
        <request index="3" response="00000" foes="00000"/>
        <request index="4" response="00000" foes="00000"/>
    </junction>
    <junction id="clusterJ18_J22_J27" type="priority" x="-19.89" y="-130.74" incLanes="E10_0 E10_1 E12_0 E12_1" intLanes="" shape="-6.97,-124.85 -20.72,-122.51 -25.62,-145.66 -13.02,-147.92">
        <request index="0" response="11110000" foes="11110000"/>
        <request index="1" response="11110000" foes="11110000"/>
        <request index="2" response="11110000" foes="11110000"/>
        <request index="3" response="11110000" foes="11110000"/>
        <request index="4" response="00000000" foes="00001111"/>
        <request index="5" response="00000000" foes="00001111"/>
        <request index="6" response="00000000" foes="00001111"/>
        <request index="7" response="00000000" foes="00001111"/>
    </junction>
    <junction id="clusterJ1_J2_J4" type="priority" x="-26.78" y="-128.41" incLanes="E0_0 E0_1 E0_2" intLanes="" shape="-21.23,-120.73 -38.09,-117.84 -38.81,-123.13 -39.00,-127.09 -38.94,-130.37 -38.89,-133.65 -39.10,-137.60 -39.86,-142.89 -30.41,-144.59 -29.09,-139.33 -27.50,-135.61 -25.78,-132.67 -24.06,-129.72 -22.50,-126.00">
        <request index="0" response="00000" foes="00000"/>
        <request index="1" response="00000" foes="00000"/>
        <request index="2" response="00000" foes="00000"/>
        <request index="3" response="00000" foes="00000"/>
        <request index="4" response="00000" foes="00000"/>
    </junction>

    <connection from="E0" to="E5" fromLane="0" toLane="0" dir="s" state="M"/>
    <connection from="E0" to="E5" fromLane="1" toLane="1" dir="s" state="M"/>
    <connection from="E0" to="E5" fromLane="2" toLane="2" dir="s" state="M"/>
    <connection from="E0" to="E6" fromLane="2" toLane="0" dir="s" state="M"/>
    <connection from="E0" to="E6" fromLane="2" toLane="1" dir="s" state="M"/>
    <connection from="E1" to="E7" fromLane="0" toLane="0" dir="l" state="M"/>
    <connection from="E1" to="E3" fromLane="0" toLane="0" dir="s" state="M"/>
    <connection from="E1" to="E3" fromLane="1" toLane="1" dir="s" state="M"/>
    <connection from="E1" to="E3" fromLane="2" toLane="2" dir="s" state="M"/>
    <connection from="E1" to="E3" fromLane="3" toLane="3" dir="s" state="M"/>
    <connection from="E1" to="E3" fromLane="4" toLane="4" dir="s" state="M"/>
    <connection from="E1" to="E12" fromLane="4" toLane="1" dir="r" state="m"/>
    <connection from="E10" to="E13" fromLane="0" toLane="0" dir="s" state="m"/>
    <connection from="E10" to="E13" fromLane="0" toLane="2" dir="s" state="m"/>
    <connection from="E10" to="E13" fromLane="1" toLane="1" dir="s" state="m"/>
    <connection from="E10" to="E13" fromLane="1" toLane="3" dir="s" state="m"/>
    <connection from="E11" to="E3" fromLane="0" toLane="0" dir="l" state="m"/>
    <connection from="E11" to="E3" fromLane="0" toLane="1" dir="l" state="m"/>
    <connection from="E11" to="E3" fromLane="0" toLane="2" dir="l" state="m"/>
    <connection from="E11" to="E12" fromLane="0" toLane="0" dir="s" state="m"/>
    <connection from="E11" to="E12" fromLane="1" toLane="1" dir="s" state="m"/>
    <connection from="E11" to="E2" fromLane="2" toLane="3" dir="r" state="m"/>
    <connection from="E11" to="E2" fromLane="2" toLane="4" dir="r" state="m"/>
    <connection from="E12" to="E13" fromLane="0" toLane="0" dir="s" state="M"/>
    <connection from="E12" to="E13" fromLane="0" toLane="2" dir="s" state="M"/>
    <connection from="E12" to="E13" fromLane="1" toLane="1" dir="s" state="M"/>
    <connection from="E12" to="E13" fromLane="1" toLane="3" dir="s" state="M"/>
    <connection from="E4" to="E12" fromLane="0" toLane="0" dir="l" state="M"/>
    <connection from="E4" to="E2" fromLane="0" toLane="0" dir="s" state="M"/>
    <connection from="E4" to="E2" fromLane="1" toLane="1" dir="s" state="M"/>
    <connection from="E4" to="E2" fromLane="2" toLane="2" dir="s" state="M"/>
    <connection from="E4" to="E2" fromLane="3" toLane="3" dir="s" state="M"/>
    <connection from="E4" to="E2" fromLane="4" toLane="4" dir="s" state="M"/>
    <connection from="E4" to="E7" fromLane="4" toLane="1" dir="r" state="m"/>
    <connection from="E5" to="E2" fromLane="0" toLane="0" dir="l" state="m"/>
    <connection from="E5" to="E2" fromLane="0" toLane="1" dir="l" state="m"/>
    <connection from="E5" to="E2" fromLane="0" toLane="2" dir="l" state="m"/>
    <connection from="E5" to="E7" fromLane="0" toLane="0" dir="s" state="m"/>
    <connection from="E5" to="E7" fromLane="1" toLane="1" dir="s" state="m"/>
    <connection from="E5" to="E3" fromLane="2" toLane="3" dir="r" state="m"/>
    <connection from="E5" to="E3" fromLane="2" toLane="4" dir="r" state="m"/>
    <connection from="E6" to="E8" fromLane="0" toLane="0" dir="s" state="m"/>
    <connection from="E6" to="E8" fromLane="0" toLane="2" dir="s" state="m"/>
    <connection from="E6" to="E8" fromLane="1" toLane="1" dir="s" state="m"/>
    <connection from="E6" to="E8" fromLane="1" toLane="3" dir="s" state="m"/>
    <connection from="E7" to="E8" fromLane="0" toLane="0" dir="s" state="M"/>
    <connection from="E7" to="E8" fromLane="0" toLane="2" dir="s" state="M"/>
    <connection from="E7" to="E8" fromLane="1" toLane="1" dir="s" state="M"/>
    <connection from="E7" to="E8" fromLane="1" toLane="3" dir="s" state="M"/>
    <connection from="E9" to="E11" fromLane="0" toLane="0" dir="s" state="M"/>
    <connection from="E9" to="E11" fromLane="1" toLane="1" dir="s" state="M"/>
    <connection from="E9" to="E11" fromLane="2" toLane="2" dir="s" state="M"/>
    <connection from="E9" to="E10" fromLane="3" toLane="0" dir="s" state="M"/>
    <connection from="E9" to="E10" fromLane="4" toLane="1" dir="s" state="M"/>

</net>
