<?xml version="1.0" encoding="UTF-8"?>

<!-- generated on 2024-12-12 17:15:00 by Eclipse SUMO netedit Version 1.20.0
<configuration xmlns:xsi="http://www.w3.org/2001/XMLSchema-instance" xsi:noNamespaceSchemaLocation="http://sumo.dlr.de/xsd/neteditConfiguration.xsd">

    <input>
        <sumo-net-file value="/Users/chashu/Desktop/dev/sumorl-venv/app/data/4road_intersection/net/2way.net.xml"/>
    </input>

    <output>
        <output-file value="/Users/chashu/Desktop/dev/sumorl-venv/app/data/4road_intersection/net/2way.net.xml"/>
    </output>

    <processing>
        <geometry.min-radius.fix.railways value="false"/>
        <geometry.max-grade.fix value="false"/>
        <offset.disable-normalization value="true"/>
        <lefthand value="1"/>
    </processing>

    <junctions>
        <no-turnarounds value="true"/>
        <junctions.corner-detail value="5"/>
        <junctions.limit-turn-speed value="5.50"/>
        <rectangular-lane-cut value="0"/>
    </junctions>

    <pedestrian>
        <walkingareas value="0"/>
    </pedestrian>

</configuration>
-->

<net version="1.20" junctionCornerDetail="5" lefthand="true" limitTurnSpeed="5.50" xmlns:xsi="http://www.w3.org/2001/XMLSchema-instance" xsi:noNamespaceSchemaLocation="http://sumo.dlr.de/xsd/net_file.xsd">

    <location netOffset="0.00,0.00" convBoundary="-100.00,-100.00,100.00,100.00" origBoundary="-10000000000.00,-10000000000.00,10000000000.00,10000000000.00" projParameter="!"/>

    <edge id=":ts_0" function="internal">
        <lane id=":ts_0_0" index="0" speed="6.51" length="9.03" shape="-4.80,-10.40 -5.15,-7.95 -6.20,-6.20 -7.95,-5.15 -10.40,-4.80"/>
    </edge>
    <edge id=":ts_1" function="internal">
        <lane id=":ts_1_0" index="0" speed="13.89" length="20.80" shape="-4.80,-10.40 -4.80,10.40"/>
        <lane id=":ts_1_1" index="1" speed="13.89" length="20.80" shape="-1.60,-10.40 -1.60,10.40"/>
    </edge>
    <edge id=":ts_3" function="internal">
        <lane id=":ts_3_0" index="0" speed="9.26" length="5.01" shape="-1.60,-10.40 -0.89,-5.44"/>
    </edge>
    <edge id=":ts_16" function="internal">
        <lane id=":ts_16_0" index="0" speed="9.26" length="14.34" shape="-0.89,-5.44 -0.85,-5.15 1.40,-1.40 5.15,0.85 10.40,1.60"/>
    </edge>
    <edge id=":ts_4" function="internal">
        <lane id=":ts_4_0" index="0" speed="6.51" length="9.03" shape="10.40,-4.80 7.95,-5.15 6.20,-6.20 5.15,-7.95 4.80,-10.40"/>
    </edge>
    <edge id=":ts_5" function="internal">
        <lane id=":ts_5_0" index="0" speed="13.89" length="20.80" shape="10.40,-4.80 -10.40,-4.80"/>
        <lane id=":ts_5_1" index="1" speed="13.89" length="20.80" shape="10.40,-1.60 -10.40,-1.60"/>
    </edge>
    <edge id=":ts_7" function="internal">
        <lane id=":ts_7_0" index="0" speed="9.26" length="5.01" shape="10.40,-1.60 5.44,-0.89"/>
    </edge>
    <edge id=":ts_17" function="internal">
        <lane id=":ts_17_0" index="0" speed="9.26" length="14.34" shape="5.44,-0.89 5.15,-0.85 1.40,1.40 -0.85,5.15 -1.60,10.40"/>
    </edge>
    <edge id=":ts_8" function="internal">
        <lane id=":ts_8_0" index="0" speed="6.51" length="9.03" shape="4.80,10.40 5.15,7.95 6.20,6.20 7.95,5.15 10.40,4.80"/>
    </edge>
    <edge id=":ts_9" function="internal">
        <lane id=":ts_9_0" index="0" speed="13.89" length="20.80" shape="4.80,10.40 4.80,-10.40"/>
        <lane id=":ts_9_1" index="1" speed="13.89" length="20.80" shape="1.60,10.40 1.60,-10.40"/>
    </edge>
    <edge id=":ts_11" function="internal">
        <lane id=":ts_11_0" index="0" speed="9.26" length="5.01" shape="1.60,10.40 0.89,5.44"/>
    </edge>
    <edge id=":ts_18" function="internal">
        <lane id=":ts_18_0" index="0" speed="9.26" length="14.34" shape="0.89,5.44 0.85,5.15 -1.40,1.40 -5.15,-0.85 -10.40,-1.60"/>
    </edge>
    <edge id=":ts_12" function="internal">
        <lane id=":ts_12_0" index="0" speed="6.51" length="9.03" shape="-10.40,4.80 -7.95,5.15 -6.20,6.20 -5.15,7.95 -4.80,10.40"/>
    </edge>
    <edge id=":ts_13" function="internal">
        <lane id=":ts_13_0" index="0" speed="13.89" length="20.80" shape="-10.40,4.80 10.40,4.80"/>
        <lane id=":ts_13_1" index="1" speed="13.89" length="20.80" shape="-10.40,1.60 10.40,1.60"/>
    </edge>
    <edge id=":ts_15" function="internal">
        <lane id=":ts_15_0" index="0" speed="9.26" length="5.01" shape="-10.40,1.60 -5.44,0.89"/>
    </edge>
    <edge id=":ts_19" function="internal">
        <lane id=":ts_19_0" index="0" speed="9.26" length="14.34" shape="-5.44,0.89 -5.15,0.85 -1.40,-1.40 0.85,-5.15 1.60,-10.40"/>
    </edge>

    <edge id="e0_ts" from="e0" to="ts" priority="-1">
        <lane id="e0_ts_0" index="0" speed="13.89" length="89.60" shape="100.00,-4.80 10.40,-4.80"/>
        <lane id="e0_ts_1" index="1" speed="13.89" length="89.60" shape="100.00,-1.60 10.40,-1.60"/>
    </edge>
    <edge id="n0_ts" from="n0" to="ts" priority="-1">
        <lane id="n0_ts_0" index="0" speed="13.89" length="89.60" shape="4.80,100.00 4.80,10.40"/>
        <lane id="n0_ts_1" index="1" speed="13.89" length="89.60" shape="1.60,100.00 1.60,10.40"/>
    </edge>
    <edge id="s0_ts" from="s0" to="ts" priority="-1">
        <lane id="s0_ts_0" index="0" speed="13.89" length="89.60" shape="-4.80,-100.00 -4.80,-10.40"/>
        <lane id="s0_ts_1" index="1" speed="13.89" length="89.60" shape="-1.60,-100.00 -1.60,-10.40"/>
    </edge>
    <edge id="ts_e0" from="ts" to="e0" priority="-1">
        <lane id="ts_e0_0" index="0" speed="13.89" length="89.60" shape="10.40,4.80 100.00,4.80"/>
        <lane id="ts_e0_1" index="1" speed="13.89" length="89.60" shape="10.40,1.60 100.00,1.60"/>
    </edge>
    <edge id="ts_n0" from="ts" to="n0" priority="-1">
        <lane id="ts_n0_0" index="0" speed="13.89" length="89.60" shape="-4.80,10.40 -4.80,100.00"/>
        <lane id="ts_n0_1" index="1" speed="13.89" length="89.60" shape="-1.60,10.40 -1.60,100.00"/>
    </edge>
    <edge id="ts_s0" from="ts" to="s0" priority="-1">
        <lane id="ts_s0_0" index="0" speed="13.89" length="89.60" shape="4.80,-10.40 4.80,-100.00"/>
        <lane id="ts_s0_1" index="1" speed="13.89" length="89.60" shape="1.60,-10.40 1.60,-100.00"/>
    </edge>
    <edge id="ts_w0" from="ts" to="w0" priority="-1">
        <lane id="ts_w0_0" index="0" speed="13.89" length="89.60" shape="-10.40,-4.80 -100.00,-4.80"/>
        <lane id="ts_w0_1" index="1" speed="13.89" length="89.60" shape="-10.40,-1.60 -100.00,-1.60"/>
    </edge>
    <edge id="w0_ts" from="w0" to="ts" priority="-1">
        <lane id="w0_ts_0" index="0" speed="13.89" length="89.60" shape="-100.00,4.80 -10.40,4.80"/>
        <lane id="w0_ts_1" index="1" speed="13.89" length="89.60" shape="-100.00,1.60 -10.40,1.60"/>
    </edge>

    <tlLogic id="tl" type="static" programID="0" offset="0">
        <phase duration="42" state="gGGgrrrrgGGgrrrr"/>
        <phase duration="3"  state="yyyyrrrryyyyrrrr"/>
        <phase duration="2"  state="rrrrrrrrrrrrrrrr"/>
        <phase duration="42" state="rrrrgGGgrrrrgGGg"/>
        <phase duration="3"  state="rrrryyyyrrrryyyy"/>
        <phase duration="2"  state="rrrrrrrrrrrrrrrr"/>
    </tlLogic>

    <junction id="e0" type="dead_end" x="100.00" y="0.00" incLanes="ts_e0_0 ts_e0_1" intLanes="" shape="100.00,-0.00 100.00,6.40 100.00,-0.00"/>
    <junction id="n0" type="dead_end" x="0.00" y="100.00" incLanes="ts_n0_0 ts_n0_1" intLanes="" shape="0.00,100.00 -6.40,100.00 0.00,100.00"/>
    <junction id="s0" type="dead_end" x="0.00" y="-100.00" incLanes="ts_s0_0 ts_s0_1" intLanes="" shape="0.00,-100.00 6.40,-100.00 0.00,-100.00"/>
    <junction id="ts" type="traffic_light" x="0.00" y="0.00" incLanes="s0_ts_0 s0_ts_1 e0_ts_0 e0_ts_1 n0_ts_0 n0_ts_1 w0_ts_0 w0_ts_1" intLanes=":ts_0_0 :ts_1_0 :ts_1_1 :ts_16_0 :ts_4_0 :ts_5_0 :ts_5_1 :ts_17_0 :ts_8_0 :ts_9_0 :ts_9_1 :ts_18_0 :ts_12_0 :ts_13_0 :ts_13_1 :ts_19_0" shape="-6.40,-10.40 6.40,-10.40 6.84,-8.18 7.40,-7.40 8.18,-6.84 9.18,-6.51 10.40,-6.40 10.40,6.40 8.18,6.84 7.40,7.40 6.84,8.18 6.51,9.18 6.40,10.40 -6.40,10.40 -6.84,8.18 -7.40,7.40 -8.18,6.84 -9.18,6.51 -10.40,6.40 -10.40,-6.40 -8.18,-6.84 -7.40,-7.40 -6.84,-8.18 -6.51,-9.18">
        <request index="0"  response="0000000000000000" foes="0000000001100000" cont="0"/>
        <request index="1"  response="1000000010000000" foes="1111100011100000" cont="0"/>
        <request index="2"  response="1000000010000000" foes="1111100011100000" cont="0"/>
        <request index="3"  response="1000011010000000" foes="1110011011100000" cont="1"/>
        <request index="4"  response="0000011000000000" foes="0000011000000000" cont="0"/>
        <request index="5"  response="0000111000001111" foes="1000111000001111" cont="0"/>
        <request index="6"  response="0000111000001111" foes="1000111000001111" cont="0"/>
        <request index="7"  response="0110111000001110" foes="0110111000001110" cont="1"/>
        <request index="8"  response="0000000000000000" foes="0110000000000000" cont="0"/>
        <request index="9"  response="1000000010000000" foes="1110000011111000" cont="0"/>
        <request index="10" response="1000000010000000" foes="1110000011111000" cont="0"/>
        <request index="11" response="1000000010000110" foes="1110000011100110" cont="1"/>
        <request index="12" response="0000000000000110" foes="0000000000000110" cont="0"/>
        <request index="13" response="0000111100001110" foes="0000111110001110" cont="0"/>
        <request index="14" response="0000111100001110" foes="0000111110001110" cont="0"/>
        <request index="15" response="0000111001101110" foes="0000111001101110" cont="1"/>
    </junction>
    <junction id="w0" type="dead_end" x="-100.00" y="0.00" incLanes="ts_w0_0 ts_w0_1" intLanes="" shape="-100.00,-0.00 -100.00,-6.40 -100.00,-0.00"/>

    <junction id=":ts_16_0" type="internal" x="-0.89" y="-5.44" incLanes=":ts_3_0 n0_ts_0 n0_ts_1" intLanes=":ts_5_0 :ts_5_1 :ts_7_0 :ts_8_0 :ts_9_0 :ts_9_1 :ts_13_0 :ts_13_1 :ts_15_0"/>
    <junction id=":ts_17_0" type="internal" x="5.44" y="-0.89" incLanes=":ts_7_0 w0_ts_0 w0_ts_1" intLanes=":ts_1_0 :ts_1_1 :ts_3_0 :ts_9_0 :ts_9_1 :ts_11_0 :ts_12_0 :ts_13_0 :ts_13_1"/>
    <junction id=":ts_18_0" type="internal" x="0.89" y="5.44" incLanes=":ts_11_0 s0_ts_0 s0_ts_1" intLanes=":ts_0_0 :ts_1_0 :ts_1_1 :ts_5_0 :ts_5_1 :ts_7_0 :ts_13_0 :ts_13_1 :ts_15_0"/>
    <junction id=":ts_19_0" type="internal" x="-5.44" y="0.89" incLanes=":ts_15_0 e0_ts_0 e0_ts_1" intLanes=":ts_1_0 :ts_1_1 :ts_3_0 :ts_4_0 :ts_5_0 :ts_5_1 :ts_9_0 :ts_9_1 :ts_11_0"/>

    <connection from="e0_ts" to="ts_s0" fromLane="0" toLane="0" via=":ts_4_0" tl="tl" linkIndex="4" dir="l" state="o"/>
    <connection from="e0_ts" to="ts_w0" fromLane="0" toLane="0" via=":ts_5_0" tl="tl" linkIndex="5" dir="s" state="o"/>
    <connection from="e0_ts" to="ts_w0" fromLane="1" toLane="1" via=":ts_5_1" tl="tl" linkIndex="6" dir="s" state="o"/>
    <connection from="e0_ts" to="ts_n0" fromLane="1" toLane="1" via=":ts_7_0" tl="tl" linkIndex="7" dir="r" state="o"/>
    <connection from="n0_ts" to="ts_e0" fromLane="0" toLane="0" via=":ts_8_0" tl="tl" linkIndex="8" dir="l" state="O"/>
    <connection from="n0_ts" to="ts_s0" fromLane="0" toLane="0" via=":ts_9_0" tl="tl" linkIndex="9" dir="s" state="O"/>
    <connection from="n0_ts" to="ts_s0" fromLane="1" toLane="1" via=":ts_9_1" tl="tl" linkIndex="10" dir="s" state="O"/>
    <connection from="n0_ts" to="ts_w0" fromLane="1" toLane="1" via=":ts_11_0" tl="tl" linkIndex="11" dir="r" state="o"/>
    <connection from="s0_ts" to="ts_w0" fromLane="0" toLane="0" via=":ts_0_0" tl="tl" linkIndex="0" dir="l" state="O"/>
    <connection from="s0_ts" to="ts_n0" fromLane="0" toLane="0" via=":ts_1_0" tl="tl" linkIndex="1" dir="s" state="O"/>
    <connection from="s0_ts" to="ts_n0" fromLane="1" toLane="1" via=":ts_1_1" tl="tl" linkIndex="2" dir="s" state="O"/>
    <connection from="s0_ts" to="ts_e0" fromLane="1" toLane="1" via=":ts_3_0" tl="tl" linkIndex="3" dir="r" state="o"/>
    <connection from="w0_ts" to="ts_n0" fromLane="0" toLane="0" via=":ts_12_0" tl="tl" linkIndex="12" dir="l" state="o"/>
    <connection from="w0_ts" to="ts_e0" fromLane="0" toLane="0" via=":ts_13_0" tl="tl" linkIndex="13" dir="s" state="o"/>
    <connection from="w0_ts" to="ts_e0" fromLane="1" toLane="1" via=":ts_13_1" tl="tl" linkIndex="14" dir="s" state="o"/>
    <connection from="w0_ts" to="ts_s0" fromLane="1" toLane="1" via=":ts_15_0" tl="tl" linkIndex="15" dir="r" state="o"/>

    <connection from=":ts_0" to="ts_w0" fromLane="0" toLane="0" dir="l" state="M"/>
    <connection from=":ts_1" to="ts_n0" fromLane="0" toLane="0" dir="s" state="M"/>
    <connection from=":ts_1" to="ts_n0" fromLane="1" toLane="1" dir="s" state="M"/>
    <connection from=":ts_3" to="ts_e0" fromLane="0" toLane="1" via=":ts_16_0" dir="r" state="m"/>
    <connection from=":ts_16" to="ts_e0" fromLane="0" toLane="1" dir="r" state="M"/>
    <connection from=":ts_4" to="ts_s0" fromLane="0" toLane="0" dir="l" state="M"/>
    <connection from=":ts_5" to="ts_w0" fromLane="0" toLane="0" dir="s" state="M"/>
    <connection from=":ts_5" to="ts_w0" fromLane="1" toLane="1" dir="s" state="M"/>
    <connection from=":ts_7" to="ts_n0" fromLane="0" toLane="1" via=":ts_17_0" dir="r" state="m"/>
    <connection from=":ts_17" to="ts_n0" fromLane="0" toLane="1" dir="r" state="M"/>
    <connection from=":ts_8" to="ts_e0" fromLane="0" toLane="0" dir="l" state="M"/>
    <connection from=":ts_9" to="ts_s0" fromLane="0" toLane="0" dir="s" state="M"/>
    <connection from=":ts_9" to="ts_s0" fromLane="1" toLane="1" dir="s" state="M"/>
    <connection from=":ts_11" to="ts_w0" fromLane="0" toLane="1" via=":ts_18_0" dir="r" state="m"/>
    <connection from=":ts_18" to="ts_w0" fromLane="0" toLane="1" dir="r" state="M"/>
    <connection from=":ts_12" to="ts_n0" fromLane="0" toLane="0" dir="l" state="M"/>
    <connection from=":ts_13" to="ts_e0" fromLane="0" toLane="0" dir="s" state="M"/>
    <connection from=":ts_13" to="ts_e0" fromLane="1" toLane="1" dir="s" state="M"/>
    <connection from=":ts_15" to="ts_s0" fromLane="0" toLane="1" via=":ts_19_0" dir="r" state="m"/>
    <connection from=":ts_19" to="ts_s0" fromLane="0" toLane="1" dir="r" state="M"/>

</net>
