<?xml version="1.0" encoding="UTF-8"?>

<!-- generated on 2024-11-22 09:49:00 by Eclipse SUMO netedit Version 1.20.0
<configuration xmlns:xsi="http://www.w3.org/2001/XMLSchema-instance" xsi:noNamespaceSchemaLocation="http://sumo.dlr.de/xsd/neteditConfiguration.xsd">

    <input>
        <sumo-net-file value="/Users/chashu/Desktop/dev/sumorl-venv/app/data/4road_intersection/net/2way_right-arrow.net.xml"/>
    </input>

    <output>
        <output-file value="/Users/chashu/Desktop/dev/sumorl-venv/app/data/4road_intersection/net/2way_right-arrow.net.xml"/>
    </output>

    <processing>
        <geometry.min-radius.fix.railways value="false"/>
        <geometry.max-grade.fix value="false"/>
        <offset.disable-normalization value="true"/>
        <lefthand value="1"/>
    </processing>

    <junctions>
        <no-turnarounds value="true"/>
        <junctions.corner-detail value="5"/>
        <junctions.limit-turn-speed value="5.50"/>
        <rectangular-lane-cut value="0"/>
    </junctions>

    <pedestrian>
        <walkingareas value="0"/>
    </pedestrian>

</configuration>
-->

<net version="1.20" junctionCornerDetail="5" lefthand="true" limitTurnSpeed="5.50" xmlns:xsi="http://www.w3.org/2001/XMLSchema-instance" xsi:noNamespaceSchemaLocation="http://sumo.dlr.de/xsd/net_file.xsd">

    <location netOffset="0.00,0.00" convBoundary="-300.00,-500.00,300.00,100.00" origBoundary="-10000000000.00,-10000000000.00,10000000000.00,10000000000.00" projParameter="!"/>

    <edge id=":ts_0" function="internal">
        <lane id=":ts_0_0" index="0" speed="6.51" length="9.03" shape="-4.80,-210.40 -5.15,-207.95 -6.20,-206.20 -7.95,-205.15 -10.40,-204.80"/>
        <lane id=":ts_0_1" index="1" speed="7.33" length="11.73" shape="-4.80,-210.40 -5.15,-206.55 -6.20,-203.80 -7.95,-202.15 -10.40,-201.60"/>
    </edge>
    <edge id=":ts_2" function="internal">
        <lane id=":ts_2_0" index="0" speed="13.89" length="20.80" shape="-4.80,-210.40 -4.80,-189.60"/>
        <lane id=":ts_2_1" index="1" speed="13.89" length="20.80" shape="-1.60,-210.40 -1.60,-189.60"/>
    </edge>
    <edge id=":ts_4" function="internal">
        <lane id=":ts_4_0" index="0" speed="9.84" length="6.30" shape="-1.60,-210.40 -0.89,-204.14"/>
        <lane id=":ts_4_1" index="1" speed="9.26" length="5.01" shape="-1.60,-210.40 -0.89,-205.44"/>
    </edge>
    <edge id=":ts_24" function="internal">
        <lane id=":ts_24_0" index="0" speed="9.84" length="15.70" shape="-0.89,-204.14 -0.85,-203.75 1.40,-199.00 5.15,-196.15 10.40,-195.20"/>
    </edge>
    <edge id=":ts_25" function="internal">
        <lane id=":ts_25_0" index="0" speed="9.26" length="14.34" shape="-0.89,-205.44 -0.85,-205.15 1.40,-201.40 5.15,-199.15 10.40,-198.40"/>
    </edge>
    <edge id=":ts_6" function="internal">
        <lane id=":ts_6_0" index="0" speed="6.51" length="9.03" shape="10.40,-204.80 7.95,-205.15 6.20,-206.20 5.15,-207.95 4.80,-210.40"/>
        <lane id=":ts_6_1" index="1" speed="7.33" length="11.73" shape="10.40,-204.80 6.55,-205.15 3.80,-206.20 2.15,-207.95 1.60,-210.40"/>
    </edge>
    <edge id=":ts_8" function="internal">
        <lane id=":ts_8_0" index="0" speed="13.89" length="20.80" shape="10.40,-204.80 -10.40,-204.80"/>
        <lane id=":ts_8_1" index="1" speed="13.89" length="20.80" shape="10.40,-201.60 -10.40,-201.60"/>
    </edge>
    <edge id=":ts_10" function="internal">
        <lane id=":ts_10_0" index="0" speed="9.84" length="6.30" shape="10.40,-201.60 4.14,-200.89"/>
        <lane id=":ts_10_1" index="1" speed="9.26" length="5.01" shape="10.40,-201.60 5.44,-200.89"/>
    </edge>
    <edge id=":ts_26" function="internal">
        <lane id=":ts_26_0" index="0" speed="9.84" length="15.70" shape="4.14,-200.89 3.75,-200.85 -1.00,-198.60 -3.85,-194.85 -4.80,-189.60"/>
    </edge>
    <edge id=":ts_27" function="internal">
        <lane id=":ts_27_0" index="0" speed="9.26" length="14.34" shape="5.44,-200.89 5.15,-200.85 1.40,-198.60 -0.85,-194.85 -1.60,-189.60"/>
    </edge>
    <edge id=":ts_12" function="internal">
        <lane id=":ts_12_0" index="0" speed="6.51" length="9.03" shape="4.80,-189.60 5.15,-192.05 6.20,-193.80 7.95,-194.85 10.40,-195.20"/>
        <lane id=":ts_12_1" index="1" speed="7.33" length="11.73" shape="4.80,-189.60 5.15,-193.45 6.20,-196.20 7.95,-197.85 10.40,-198.40"/>
    </edge>
    <edge id=":ts_14" function="internal">
        <lane id=":ts_14_0" index="0" speed="13.89" length="20.80" shape="4.80,-189.60 4.80,-210.40"/>
        <lane id=":ts_14_1" index="1" speed="13.89" length="20.80" shape="1.60,-189.60 1.60,-210.40"/>
    </edge>
    <edge id=":ts_16" function="internal">
        <lane id=":ts_16_0" index="0" speed="9.84" length="6.30" shape="1.60,-189.60 0.89,-195.86"/>
        <lane id=":ts_16_1" index="1" speed="9.26" length="5.01" shape="1.60,-189.60 0.89,-194.56"/>
    </edge>
    <edge id=":ts_28" function="internal">
        <lane id=":ts_28_0" index="0" speed="9.84" length="15.70" shape="0.89,-195.86 0.85,-196.25 -1.40,-201.00 -5.15,-203.85 -10.40,-204.80"/>
    </edge>
    <edge id=":ts_29" function="internal">
        <lane id=":ts_29_0" index="0" speed="9.26" length="14.34" shape="0.89,-194.56 0.85,-194.85 -1.40,-198.60 -5.15,-200.85 -10.40,-201.60"/>
    </edge>
    <edge id=":ts_18" function="internal">
        <lane id=":ts_18_0" index="0" speed="6.51" length="9.03" shape="-10.40,-195.20 -7.95,-194.85 -6.20,-193.80 -5.15,-192.05 -4.80,-189.60"/>
        <lane id=":ts_18_1" index="1" speed="7.33" length="11.73" shape="-10.40,-195.20 -6.55,-194.85 -3.80,-193.80 -2.15,-192.05 -1.60,-189.60"/>
    </edge>
    <edge id=":ts_20" function="internal">
        <lane id=":ts_20_0" index="0" speed="13.89" length="20.80" shape="-10.40,-195.20 10.40,-195.20"/>
        <lane id=":ts_20_1" index="1" speed="13.89" length="20.80" shape="-10.40,-198.40 10.40,-198.40"/>
    </edge>
    <edge id=":ts_22" function="internal">
        <lane id=":ts_22_0" index="0" speed="9.84" length="6.30" shape="-10.40,-198.40 -4.14,-199.11"/>
        <lane id=":ts_22_1" index="1" speed="9.26" length="5.01" shape="-10.40,-198.40 -5.44,-199.11"/>
    </edge>
    <edge id=":ts_30" function="internal">
        <lane id=":ts_30_0" index="0" speed="9.84" length="15.70" shape="-4.14,-199.11 -3.75,-199.15 1.00,-201.40 3.85,-205.15 4.80,-210.40"/>
    </edge>
    <edge id=":ts_31" function="internal">
        <lane id=":ts_31_0" index="0" speed="9.26" length="14.34" shape="-5.44,-199.11 -5.15,-199.15 -1.40,-201.40 0.85,-205.15 1.60,-210.40"/>
    </edge>

    <edge id="e0_ts" from="e0" to="ts" priority="-1" length="300.00">
        <lane id="e0_ts_0" index="0" speed="13.89" length="300.00" shape="300.00,-204.80 10.40,-204.80"/>
        <lane id="e0_ts_1" index="1" speed="13.89" length="300.00" shape="300.00,-201.60 10.40,-201.60"/>
    </edge>
    <edge id="n0_ts" from="n0" to="ts" priority="-1" length="300.00">
        <lane id="n0_ts_0" index="0" speed="13.89" length="300.00" shape="4.80,100.00 4.80,-189.60"/>
        <lane id="n0_ts_1" index="1" speed="13.89" length="300.00" shape="1.60,100.00 1.60,-189.60"/>
    </edge>
    <edge id="s0_ts" from="s0" to="ts" priority="-1" length="300.00">
        <lane id="s0_ts_0" index="0" speed="13.89" length="300.00" shape="-4.80,-500.00 -4.80,-210.40"/>
        <lane id="s0_ts_1" index="1" speed="13.89" length="300.00" shape="-1.60,-500.00 -1.60,-210.40"/>
    </edge>
    <edge id="ts_e0" from="ts" to="e0" priority="-1" length="300.00">
        <lane id="ts_e0_0" index="0" speed="13.89" length="300.00" shape="10.40,-195.20 300.00,-195.20"/>
        <lane id="ts_e0_1" index="1" speed="13.89" length="300.00" shape="10.40,-198.40 300.00,-198.40"/>
    </edge>
    <edge id="ts_n0" from="ts" to="n0" priority="-1" length="300.00">
        <lane id="ts_n0_0" index="0" speed="13.89" length="300.00" shape="-4.80,-189.60 -4.80,100.00"/>
        <lane id="ts_n0_1" index="1" speed="13.89" length="300.00" shape="-1.60,-189.60 -1.60,100.00"/>
    </edge>
    <edge id="ts_s0" from="ts" to="s0" priority="-1" length="300.00">
        <lane id="ts_s0_0" index="0" speed="13.89" length="300.00" shape="4.80,-210.40 4.80,-500.00"/>
        <lane id="ts_s0_1" index="1" speed="13.89" length="300.00" shape="1.60,-210.40 1.60,-500.00"/>
    </edge>
    <edge id="ts_w0" from="ts" to="w0" priority="-1" length="300.00">
        <lane id="ts_w0_0" index="0" speed="13.89" length="300.00" shape="-10.40,-204.80 -300.00,-204.80"/>
        <lane id="ts_w0_1" index="1" speed="13.89" length="300.00" shape="-10.40,-201.60 -300.00,-201.60"/>
    </edge>
    <edge id="w0_ts" from="w0" to="ts" priority="-1" length="300.00">
        <lane id="w0_ts_0" index="0" speed="13.89" length="300.00" shape="-300.00,-195.20 -10.40,-195.20"/>
        <lane id="w0_ts_1" index="1" speed="13.89" length="300.00" shape="-300.00,-198.40 -10.40,-198.40"/>
    </edge>

    <tlLogic id="tl" type="static" programID="0" offset="0">
        <phase duration="30" state="ggGGggrrrrrrggGGggrrrrrr"/>
        <phase duration="2"  state="yyyyyyrrrrrryyyyyyrrrrrr"/>
        <phase duration="7"  state="rrrrGGrrrrrrrrrrGGrrrrrr"/>
        <phase duration="2"  state="rrrryyrrrrrrrrrryyrrrrrr"/>
        <phase duration="3"  state="rrrrrrrrrrrrrrrrrrrrrrrr"/>
        <phase duration="45" state="rrrrrrggGGggrrrrrrggGGgg"/>
        <phase duration="2"  state="rrrrrryyyyyyrrrrrryyyyyy"/>
        <phase duration="10" state="rrrrrrrrrrGGrrrrrrrrrrGG"/>
        <phase duration="2"  state="rrrrrrrrrryyrrrrrrrrrryy"/>
        <phase duration="3"  state="rrrrrrrrrrrrrrrrrrrrrrrr"/>
    </tlLogic>

    <junction id="e0" type="dead_end" x="300.00" y="-200.00" incLanes="ts_e0_0 ts_e0_1" intLanes="" shape="300.00,-200.00 300.00,-193.60 300.00,-200.00"/>
    <junction id="n0" type="dead_end" x="0.00" y="100.00" incLanes="ts_n0_0 ts_n0_1" intLanes="" shape="0.00,100.00 -6.40,100.00 0.00,100.00"/>
    <junction id="s0" type="dead_end" x="0.00" y="-500.00" incLanes="ts_s0_0 ts_s0_1" intLanes="" shape="0.00,-500.00 6.40,-500.00 0.00,-500.00"/>
    <junction id="ts" type="traffic_light" x="0.00" y="-200.00" incLanes="s0_ts_0 s0_ts_1 e0_ts_0 e0_ts_1 n0_ts_0 n0_ts_1 w0_ts_0 w0_ts_1" intLanes=":ts_0_0 :ts_0_1 :ts_2_0 :ts_2_1 :ts_24_0 :ts_25_0 :ts_6_0 :ts_6_1 :ts_8_0 :ts_8_1 :ts_26_0 :ts_27_0 :ts_12_0 :ts_12_1 :ts_14_0 :ts_14_1 :ts_28_0 :ts_29_0 :ts_18_0 :ts_18_1 :ts_20_0 :ts_20_1 :ts_30_0 :ts_31_0" shape="-6.40,-210.40 6.40,-210.40 6.84,-208.18 7.40,-207.40 8.18,-206.84 9.18,-206.51 10.40,-206.40 10.40,-193.60 8.18,-193.16 7.40,-192.60 6.84,-191.82 6.51,-190.82 6.40,-189.60 -6.40,-189.60 -6.84,-191.82 -7.40,-192.60 -8.18,-193.16 -9.18,-193.49 -10.40,-193.60 -10.40,-206.40 -8.18,-206.84 -7.40,-207.40 -6.84,-208.18 -6.51,-209.18">
        <request index="0"  response="000000000000000000000000" foes="000000110000001100000000" cont="0"/>
        <request index="1"  response="000000000000000000000000" foes="000000110000001100000000" cont="0"/>
        <request index="2"  response="110000000000110000000000" foes="111111110000111100000000" cont="0"/>
        <request index="3"  response="110000000000110000000000" foes="111111110000111100000000" cont="0"/>
        <request index="4"  response="110000001111110000000000" foes="111100011111111100000000" cont="1"/>
        <request index="5"  response="110000001111110000000000" foes="111100001111111100000000" cont="1"/>
        <request index="6"  response="000000001100000000000000" foes="110000001100000000000000" cont="0"/>
        <request index="7"  response="000000001100000000000000" foes="110000001100000000000000" cont="0"/>
        <request index="8"  response="000000111100000000111111" foes="110000111100000000111111" cont="0"/>
        <request index="9"  response="000000111100000000111111" foes="110000111100000000111111" cont="0"/>
        <request index="10" response="011111111100000000111100" foes="011111111100000000111100" cont="1"/>
        <request index="11" response="001111111100000000111100" foes="001111111100000000111100" cont="1"/>
        <request index="12" response="000000000000000000000000" foes="001100000000000000110000" cont="0"/>
        <request index="13" response="000000000000000000000000" foes="001100000000000000110000" cont="0"/>
        <request index="14" response="110000000000110000000000" foes="111100000000111111110000" cont="0"/>
        <request index="15" response="110000000000110000000000" foes="111100000000111111110000" cont="0"/>
        <request index="16" response="110000000000110000011111" foes="111100000000111100011111" cont="1"/>
        <request index="17" response="110000000000110000001111" foes="111100000000111100001111" cont="1"/>
        <request index="18" response="000000000000000000001100" foes="000000000000110000001100" cont="0"/>
        <request index="19" response="000000000000000000001100" foes="000000000000110000001100" cont="0"/>
        <request index="20" response="000000111111000000111100" foes="000000111111110000111100" cont="0"/>
        <request index="21" response="000000111111000000111100" foes="000000111111110000111100" cont="0"/>
        <request index="22" response="000000111100001111111100" foes="000000111100011111111100" cont="1"/>
        <request index="23" response="000000111100001111111100" foes="000000111100001111111100" cont="1"/>
    </junction>
    <junction id="w0" type="dead_end" x="-300.00" y="-200.00" incLanes="ts_w0_0 ts_w0_1" intLanes="" shape="-300.00,-200.00 -300.00,-206.40 -300.00,-200.00"/>

    <junction id=":ts_24_0" type="internal" x="-0.89" y="-204.14" incLanes=":ts_4_0 n0_ts_0 n0_ts_1" intLanes=":ts_8_0 :ts_8_1 :ts_10_0 :ts_10_1 :ts_12_0 :ts_12_1 :ts_14_0 :ts_14_1 :ts_20_0 :ts_20_1 :ts_22_0 :ts_22_1"/>
    <junction id=":ts_25_0" type="internal" x="-0.89" y="-205.44" incLanes=":ts_4_1 n0_ts_0 n0_ts_1" intLanes=":ts_8_0 :ts_8_1 :ts_10_0 :ts_10_1 :ts_12_0 :ts_12_1 :ts_14_0 :ts_14_1 :ts_20_0 :ts_20_1 :ts_22_0 :ts_22_1"/>
    <junction id=":ts_26_0" type="internal" x="4.14" y="-200.89" incLanes=":ts_10_0 w0_ts_0 w0_ts_1" intLanes=":ts_2_0 :ts_2_1 :ts_4_0 :ts_4_1 :ts_14_0 :ts_14_1 :ts_16_0 :ts_16_1 :ts_18_0 :ts_18_1 :ts_20_0 :ts_20_1"/>
    <junction id=":ts_27_0" type="internal" x="5.44" y="-200.89" incLanes=":ts_10_1 w0_ts_0 w0_ts_1" intLanes=":ts_2_0 :ts_2_1 :ts_4_0 :ts_4_1 :ts_14_0 :ts_14_1 :ts_16_0 :ts_16_1 :ts_18_0 :ts_18_1 :ts_20_0 :ts_20_1"/>
    <junction id=":ts_28_0" type="internal" x="0.89" y="-195.86" incLanes=":ts_16_0 s0_ts_0 s0_ts_1" intLanes=":ts_0_0 :ts_0_1 :ts_2_0 :ts_2_1 :ts_8_0 :ts_8_1 :ts_10_0 :ts_10_1 :ts_20_0 :ts_20_1 :ts_22_0 :ts_22_1"/>
    <junction id=":ts_29_0" type="internal" x="0.89" y="-194.56" incLanes=":ts_16_1 s0_ts_0 s0_ts_1" intLanes=":ts_0_0 :ts_0_1 :ts_2_0 :ts_2_1 :ts_8_0 :ts_8_1 :ts_10_0 :ts_10_1 :ts_20_0 :ts_20_1 :ts_22_0 :ts_22_1"/>
    <junction id=":ts_30_0" type="internal" x="-4.14" y="-199.11" incLanes=":ts_22_0 e0_ts_0 e0_ts_1" intLanes=":ts_2_0 :ts_2_1 :ts_4_0 :ts_4_1 :ts_6_0 :ts_6_1 :ts_8_0 :ts_8_1 :ts_14_0 :ts_14_1 :ts_16_0 :ts_16_1"/>
    <junction id=":ts_31_0" type="internal" x="-5.44" y="-199.11" incLanes=":ts_22_1 e0_ts_0 e0_ts_1" intLanes=":ts_2_0 :ts_2_1 :ts_4_0 :ts_4_1 :ts_6_0 :ts_6_1 :ts_8_0 :ts_8_1 :ts_14_0 :ts_14_1 :ts_16_0 :ts_16_1"/>

    <connection from="e0_ts" to="ts_s0" fromLane="0" toLane="0" via=":ts_6_0" tl="tl" linkIndex="6" dir="l" state="o"/>
    <connection from="e0_ts" to="ts_s0" fromLane="0" toLane="1" via=":ts_6_1" tl="tl" linkIndex="7" dir="l" state="o"/>
    <connection from="e0_ts" to="ts_w0" fromLane="0" toLane="0" via=":ts_8_0" tl="tl" linkIndex="8" dir="s" state="o"/>
    <connection from="e0_ts" to="ts_w0" fromLane="1" toLane="1" via=":ts_8_1" tl="tl" linkIndex="9" dir="s" state="o"/>
    <connection from="e0_ts" to="ts_n0" fromLane="1" toLane="0" via=":ts_10_0" tl="tl" linkIndex="10" dir="r" state="o"/>
    <connection from="e0_ts" to="ts_n0" fromLane="1" toLane="1" via=":ts_10_1" tl="tl" linkIndex="11" dir="r" state="o"/>
    <connection from="n0_ts" to="ts_e0" fromLane="0" toLane="0" via=":ts_12_0" tl="tl" linkIndex="12" dir="l" state="O"/>
    <connection from="n0_ts" to="ts_e0" fromLane="0" toLane="1" via=":ts_12_1" tl="tl" linkIndex="13" dir="l" state="O"/>
    <connection from="n0_ts" to="ts_s0" fromLane="0" toLane="0" via=":ts_14_0" tl="tl" linkIndex="14" dir="s" state="O"/>
    <connection from="n0_ts" to="ts_s0" fromLane="1" toLane="1" via=":ts_14_1" tl="tl" linkIndex="15" dir="s" state="O"/>
    <connection from="n0_ts" to="ts_w0" fromLane="1" toLane="0" via=":ts_16_0" tl="tl" linkIndex="16" dir="r" state="o"/>
    <connection from="n0_ts" to="ts_w0" fromLane="1" toLane="1" via=":ts_16_1" tl="tl" linkIndex="17" dir="r" state="o"/>
    <connection from="s0_ts" to="ts_w0" fromLane="0" toLane="0" via=":ts_0_0" tl="tl" linkIndex="0" dir="l" state="O"/>
    <connection from="s0_ts" to="ts_w0" fromLane="0" toLane="1" via=":ts_0_1" tl="tl" linkIndex="1" dir="l" state="O"/>
    <connection from="s0_ts" to="ts_n0" fromLane="0" toLane="0" via=":ts_2_0" tl="tl" linkIndex="2" dir="s" state="O"/>
    <connection from="s0_ts" to="ts_n0" fromLane="1" toLane="1" via=":ts_2_1" tl="tl" linkIndex="3" dir="s" state="O"/>
    <connection from="s0_ts" to="ts_e0" fromLane="1" toLane="0" via=":ts_4_0" tl="tl" linkIndex="4" dir="r" state="o"/>
    <connection from="s0_ts" to="ts_e0" fromLane="1" toLane="1" via=":ts_4_1" tl="tl" linkIndex="5" dir="r" state="o"/>
    <connection from="w0_ts" to="ts_n0" fromLane="0" toLane="0" via=":ts_18_0" tl="tl" linkIndex="18" dir="l" state="o"/>
    <connection from="w0_ts" to="ts_n0" fromLane="0" toLane="1" via=":ts_18_1" tl="tl" linkIndex="19" dir="l" state="o"/>
    <connection from="w0_ts" to="ts_e0" fromLane="0" toLane="0" via=":ts_20_0" tl="tl" linkIndex="20" dir="s" state="o"/>
    <connection from="w0_ts" to="ts_e0" fromLane="1" toLane="1" via=":ts_20_1" tl="tl" linkIndex="21" dir="s" state="o"/>
    <connection from="w0_ts" to="ts_s0" fromLane="1" toLane="0" via=":ts_22_0" tl="tl" linkIndex="22" dir="r" state="o"/>
    <connection from="w0_ts" to="ts_s0" fromLane="1" toLane="1" via=":ts_22_1" tl="tl" linkIndex="23" dir="r" state="o"/>

    <connection from=":ts_0" to="ts_w0" fromLane="0" toLane="0" dir="l" state="M"/>
    <connection from=":ts_0" to="ts_w0" fromLane="1" toLane="1" dir="l" state="M"/>
    <connection from=":ts_2" to="ts_n0" fromLane="0" toLane="0" dir="s" state="M"/>
    <connection from=":ts_2" to="ts_n0" fromLane="1" toLane="1" dir="s" state="M"/>
    <connection from=":ts_4" to="ts_e0" fromLane="0" toLane="0" via=":ts_24_0" dir="r" state="m"/>
    <connection from=":ts_24" to="ts_e0" fromLane="0" toLane="0" dir="r" state="M"/>
    <connection from=":ts_4" to="ts_e0" fromLane="1" toLane="1" via=":ts_25_0" dir="r" state="m"/>
    <connection from=":ts_25" to="ts_e0" fromLane="0" toLane="1" dir="r" state="M"/>
    <connection from=":ts_6" to="ts_s0" fromLane="0" toLane="0" dir="l" state="M"/>
    <connection from=":ts_6" to="ts_s0" fromLane="1" toLane="1" dir="l" state="M"/>
    <connection from=":ts_8" to="ts_w0" fromLane="0" toLane="0" dir="s" state="M"/>
    <connection from=":ts_8" to="ts_w0" fromLane="1" toLane="1" dir="s" state="M"/>
    <connection from=":ts_10" to="ts_n0" fromLane="0" toLane="0" via=":ts_26_0" dir="r" state="m"/>
    <connection from=":ts_26" to="ts_n0" fromLane="0" toLane="0" dir="r" state="M"/>
    <connection from=":ts_10" to="ts_n0" fromLane="1" toLane="1" via=":ts_27_0" dir="r" state="m"/>
    <connection from=":ts_27" to="ts_n0" fromLane="0" toLane="1" dir="r" state="M"/>
    <connection from=":ts_12" to="ts_e0" fromLane="0" toLane="0" dir="l" state="M"/>
    <connection from=":ts_12" to="ts_e0" fromLane="1" toLane="1" dir="l" state="M"/>
    <connection from=":ts_14" to="ts_s0" fromLane="0" toLane="0" dir="s" state="M"/>
    <connection from=":ts_14" to="ts_s0" fromLane="1" toLane="1" dir="s" state="M"/>
    <connection from=":ts_16" to="ts_w0" fromLane="0" toLane="0" via=":ts_28_0" dir="r" state="m"/>
    <connection from=":ts_28" to="ts_w0" fromLane="0" toLane="0" dir="r" state="M"/>
    <connection from=":ts_16" to="ts_w0" fromLane="1" toLane="1" via=":ts_29_0" dir="r" state="m"/>
    <connection from=":ts_29" to="ts_w0" fromLane="0" toLane="1" dir="r" state="M"/>
    <connection from=":ts_18" to="ts_n0" fromLane="0" toLane="0" dir="l" state="M"/>
    <connection from=":ts_18" to="ts_n0" fromLane="1" toLane="1" dir="l" state="M"/>
    <connection from=":ts_20" to="ts_e0" fromLane="0" toLane="0" dir="s" state="M"/>
    <connection from=":ts_20" to="ts_e0" fromLane="1" toLane="1" dir="s" state="M"/>
    <connection from=":ts_22" to="ts_s0" fromLane="0" toLane="0" via=":ts_30_0" dir="r" state="m"/>
    <connection from=":ts_30" to="ts_s0" fromLane="0" toLane="0" dir="r" state="M"/>
    <connection from=":ts_22" to="ts_s0" fromLane="1" toLane="1" via=":ts_31_0" dir="r" state="m"/>
    <connection from=":ts_31" to="ts_s0" fromLane="0" toLane="1" dir="r" state="M"/>

</net>
