<?xml version="1.0" encoding="UTF-8"?>

<!-- generated on 2024-11-22 12:30:37 by Eclipse SUMO netedit Version 1.20.0
<configuration xmlns:xsi="http://www.w3.org/2001/XMLSchema-instance" xsi:noNamespaceSchemaLocation="http://sumo.dlr.de/xsd/neteditConfiguration.xsd">

    <input>
        <sumo-net-file value="/Users/chashu/Desktop/dev/sumorl-venv/app/data/4road_intersection/net/3way.net.xml"/>
    </input>

    <output>
        <output-file value="/Users/chashu/Desktop/dev/sumorl-venv/app/data/4road_intersection/net/3way.net.xml"/>
    </output>

    <processing>
        <geometry.min-radius.fix.railways value="false"/>
        <geometry.max-grade.fix value="false"/>
        <offset.disable-normalization value="true"/>
        <lefthand value="1"/>
    </processing>

    <junctions>
        <no-turnarounds value="true"/>
        <junctions.corner-detail value="5"/>
        <junctions.limit-turn-speed value="5.50"/>
        <rectangular-lane-cut value="0"/>
    </junctions>

    <pedestrian>
        <walkingareas value="0"/>
    </pedestrian>

</configuration>
-->

<net version="1.20" junctionCornerDetail="5" lefthand="true" limitTurnSpeed="5.50" xmlns:xsi="http://www.w3.org/2001/XMLSchema-instance" xsi:noNamespaceSchemaLocation="http://sumo.dlr.de/xsd/net_file.xsd">

    <location netOffset="0.00,0.00" convBoundary="-300.00,-500.00,300.00,100.00" origBoundary="-10000000000.00,-10000000000.00,10000000000.00,10000000000.00" projParameter="!"/>

    <edge id=":ts_0" function="internal">
        <lane id=":ts_0_0" index="0" speed="6.51" length="9.03" shape="-8.00,-213.60 -8.35,-211.15 -9.40,-209.40 -11.15,-208.35 -13.60,-208.00"/>
        <lane id=":ts_0_1" index="1" speed="7.33" length="11.73" shape="-8.00,-213.60 -8.35,-209.75 -9.40,-207.00 -11.15,-205.35 -13.60,-204.80"/>
        <lane id=":ts_0_2" index="2" speed="8.10" length="14.57" shape="-8.00,-213.60 -8.35,-208.35 -9.40,-204.60 -11.15,-202.35 -13.60,-201.60"/>
    </edge>
    <edge id=":ts_3" function="internal">
        <lane id=":ts_3_0" index="0" speed="13.89" length="27.20" shape="-8.00,-213.60 -8.00,-186.40"/>
        <lane id=":ts_3_1" index="1" speed="13.89" length="27.20" shape="-4.80,-213.60 -4.80,-186.40"/>
        <lane id=":ts_3_2" index="2" speed="13.89" length="27.20" shape="-1.60,-213.60 -1.60,-186.40"/>
    </edge>
    <edge id=":ts_6" function="internal">
        <lane id=":ts_6_0" index="0" speed="11.39" length="7.04" shape="-1.60,-213.60 -0.90,-206.59"/>
        <lane id=":ts_6_1" index="1" speed="10.88" length="6.03" shape="-1.60,-213.60 -0.89,-207.62"/>
        <lane id=":ts_6_2" index="2" speed="10.36" length="5.01" shape="-1.60,-213.60 -0.89,-208.64"/>
    </edge>
    <edge id=":ts_36" function="internal">
        <lane id=":ts_36_0" index="0" speed="11.39" length="22.81" shape="-0.90,-206.59 -0.65,-204.15 2.20,-197.40 6.95,-193.35 13.60,-192.00"/>
    </edge>
    <edge id=":ts_37" function="internal">
        <lane id=":ts_37_0" index="0" speed="10.88" length="21.12" shape="-0.89,-207.62 -0.65,-205.55 2.20,-199.80 6.95,-196.35 13.60,-195.20"/>
    </edge>
    <edge id=":ts_38" function="internal">
        <lane id=":ts_38_0" index="0" speed="10.36" length="19.50" shape="-0.89,-208.64 -0.65,-206.95 2.20,-202.20 6.95,-199.35 13.60,-198.40"/>
    </edge>
    <edge id=":ts_9" function="internal">
        <lane id=":ts_9_0" index="0" speed="6.51" length="9.03" shape="13.60,-208.00 11.15,-208.35 9.40,-209.40 8.35,-211.15 8.00,-213.60"/>
        <lane id=":ts_9_1" index="1" speed="7.33" length="11.73" shape="13.60,-208.00 9.75,-208.35 7.00,-209.40 5.35,-211.15 4.80,-213.60"/>
        <lane id=":ts_9_2" index="2" speed="8.10" length="14.57" shape="13.60,-208.00 8.35,-208.35 4.60,-209.40 2.35,-211.15 1.60,-213.60"/>
    </edge>
    <edge id=":ts_12" function="internal">
        <lane id=":ts_12_0" index="0" speed="13.89" length="27.20" shape="13.60,-208.00 -13.60,-208.00"/>
        <lane id=":ts_12_1" index="1" speed="13.89" length="27.20" shape="13.60,-204.80 -13.60,-204.80"/>
        <lane id=":ts_12_2" index="2" speed="13.89" length="27.20" shape="13.60,-201.60 -13.60,-201.60"/>
    </edge>
    <edge id=":ts_15" function="internal">
        <lane id=":ts_15_0" index="0" speed="11.39" length="7.04" shape="13.60,-201.60 6.59,-200.90"/>
        <lane id=":ts_15_1" index="1" speed="10.88" length="6.03" shape="13.60,-201.60 7.62,-200.89"/>
        <lane id=":ts_15_2" index="2" speed="10.36" length="5.01" shape="13.60,-201.60 8.64,-200.89"/>
    </edge>
    <edge id=":ts_39" function="internal">
        <lane id=":ts_39_0" index="0" speed="11.39" length="22.81" shape="6.59,-200.90 4.15,-200.65 -2.60,-197.80 -6.65,-193.05 -8.00,-186.40"/>
    </edge>
    <edge id=":ts_40" function="internal">
        <lane id=":ts_40_0" index="0" speed="10.88" length="21.12" shape="7.62,-200.89 5.55,-200.65 -0.20,-197.80 -3.65,-193.05 -4.80,-186.40"/>
    </edge>
    <edge id=":ts_41" function="internal">
        <lane id=":ts_41_0" index="0" speed="10.36" length="19.50" shape="8.64,-200.89 6.95,-200.65 2.20,-197.80 -0.65,-193.05 -1.60,-186.40"/>
    </edge>
    <edge id=":ts_18" function="internal">
        <lane id=":ts_18_0" index="0" speed="6.51" length="9.03" shape="8.00,-186.40 8.35,-188.85 9.40,-190.60 11.15,-191.65 13.60,-192.00"/>
        <lane id=":ts_18_1" index="1" speed="7.33" length="11.73" shape="8.00,-186.40 8.35,-190.25 9.40,-193.00 11.15,-194.65 13.60,-195.20"/>
        <lane id=":ts_18_2" index="2" speed="8.10" length="14.57" shape="8.00,-186.40 8.35,-191.65 9.40,-195.40 11.15,-197.65 13.60,-198.40"/>
    </edge>
    <edge id=":ts_21" function="internal">
        <lane id=":ts_21_0" index="0" speed="13.89" length="27.20" shape="8.00,-186.40 8.00,-213.60"/>
        <lane id=":ts_21_1" index="1" speed="13.89" length="27.20" shape="4.80,-186.40 4.80,-213.60"/>
        <lane id=":ts_21_2" index="2" speed="13.89" length="27.20" shape="1.60,-186.40 1.60,-213.60"/>
    </edge>
    <edge id=":ts_24" function="internal">
        <lane id=":ts_24_0" index="0" speed="11.39" length="7.04" shape="1.60,-186.40 0.90,-193.41"/>
        <lane id=":ts_24_1" index="1" speed="10.88" length="6.03" shape="1.60,-186.40 0.89,-192.38"/>
        <lane id=":ts_24_2" index="2" speed="10.36" length="5.01" shape="1.60,-186.40 0.89,-191.36"/>
    </edge>
    <edge id=":ts_42" function="internal">
        <lane id=":ts_42_0" index="0" speed="11.39" length="22.81" shape="0.90,-193.41 0.65,-195.85 -2.20,-202.60 -6.95,-206.65 -13.60,-208.00"/>
    </edge>
    <edge id=":ts_43" function="internal">
        <lane id=":ts_43_0" index="0" speed="10.88" length="21.12" shape="0.89,-192.38 0.65,-194.45 -2.20,-200.20 -6.95,-203.65 -13.60,-204.80"/>
    </edge>
    <edge id=":ts_44" function="internal">
        <lane id=":ts_44_0" index="0" speed="10.36" length="19.50" shape="0.89,-191.36 0.65,-193.05 -2.20,-197.80 -6.95,-200.65 -13.60,-201.60"/>
    </edge>
    <edge id=":ts_27" function="internal">
        <lane id=":ts_27_0" index="0" speed="6.51" length="9.03" shape="-13.60,-192.00 -11.15,-191.65 -9.40,-190.60 -8.35,-188.85 -8.00,-186.40"/>
        <lane id=":ts_27_1" index="1" speed="7.33" length="11.73" shape="-13.60,-192.00 -9.75,-191.65 -7.00,-190.60 -5.35,-188.85 -4.80,-186.40"/>
        <lane id=":ts_27_2" index="2" speed="8.10" length="14.57" shape="-13.60,-192.00 -8.35,-191.65 -4.60,-190.60 -2.35,-188.85 -1.60,-186.40"/>
    </edge>
    <edge id=":ts_30" function="internal">
        <lane id=":ts_30_0" index="0" speed="13.89" length="27.20" shape="-13.60,-192.00 13.60,-192.00"/>
        <lane id=":ts_30_1" index="1" speed="13.89" length="27.20" shape="-13.60,-195.20 13.60,-195.20"/>
        <lane id=":ts_30_2" index="2" speed="13.89" length="27.20" shape="-13.60,-198.40 13.60,-198.40"/>
    </edge>
    <edge id=":ts_33" function="internal">
        <lane id=":ts_33_0" index="0" speed="11.39" length="7.04" shape="-13.60,-198.40 -6.59,-199.10"/>
        <lane id=":ts_33_1" index="1" speed="10.88" length="6.03" shape="-13.60,-198.40 -7.62,-199.11"/>
        <lane id=":ts_33_2" index="2" speed="10.36" length="5.01" shape="-13.60,-198.40 -8.64,-199.11"/>
    </edge>
    <edge id=":ts_45" function="internal">
        <lane id=":ts_45_0" index="0" speed="11.39" length="22.81" shape="-6.59,-199.10 -4.15,-199.35 2.60,-202.20 6.65,-206.95 8.00,-213.60"/>
    </edge>
    <edge id=":ts_46" function="internal">
        <lane id=":ts_46_0" index="0" speed="10.88" length="21.12" shape="-7.62,-199.11 -5.55,-199.35 0.20,-202.20 3.65,-206.95 4.80,-213.60"/>
    </edge>
    <edge id=":ts_47" function="internal">
        <lane id=":ts_47_0" index="0" speed="10.36" length="19.50" shape="-8.64,-199.11 -6.95,-199.35 -2.20,-202.20 0.65,-206.95 1.60,-213.60"/>
    </edge>

    <edge id="e0_ts" from="e0" to="ts" priority="-1" length="300.00">
        <lane id="e0_ts_0" index="0" speed="13.89" length="300.00" shape="300.00,-208.00 13.60,-208.00"/>
        <lane id="e0_ts_1" index="1" speed="13.89" length="300.00" shape="300.00,-204.80 13.60,-204.80"/>
        <lane id="e0_ts_2" index="2" speed="13.89" length="300.00" shape="300.00,-201.60 13.60,-201.60"/>
    </edge>
    <edge id="n0_ts" from="n0" to="ts" priority="-1" length="300.00">
        <lane id="n0_ts_0" index="0" speed="13.89" length="300.00" shape="8.00,100.00 8.00,-186.40"/>
        <lane id="n0_ts_1" index="1" speed="13.89" length="300.00" shape="4.80,100.00 4.80,-186.40"/>
        <lane id="n0_ts_2" index="2" speed="13.89" length="300.00" shape="1.60,100.00 1.60,-186.40"/>
    </edge>
    <edge id="s0_ts" from="s0" to="ts" priority="-1" length="300.00">
        <lane id="s0_ts_0" index="0" speed="13.89" length="300.00" shape="-8.00,-500.00 -8.00,-213.60"/>
        <lane id="s0_ts_1" index="1" speed="13.89" length="300.00" shape="-4.80,-500.00 -4.80,-213.60"/>
        <lane id="s0_ts_2" index="2" speed="13.89" length="300.00" shape="-1.60,-500.00 -1.60,-213.60"/>
    </edge>
    <edge id="ts_e0" from="ts" to="e0" priority="-1" length="300.00">
        <lane id="ts_e0_0" index="0" speed="13.89" length="300.00" shape="13.60,-192.00 300.00,-192.00"/>
        <lane id="ts_e0_1" index="1" speed="13.89" length="300.00" shape="13.60,-195.20 300.00,-195.20"/>
        <lane id="ts_e0_2" index="2" speed="13.89" length="300.00" shape="13.60,-198.40 300.00,-198.40"/>
    </edge>
    <edge id="ts_n0" from="ts" to="n0" priority="-1" length="300.00">
        <lane id="ts_n0_0" index="0" speed="13.89" length="300.00" shape="-8.00,-186.40 -8.00,100.00"/>
        <lane id="ts_n0_1" index="1" speed="13.89" length="300.00" shape="-4.80,-186.40 -4.80,100.00"/>
        <lane id="ts_n0_2" index="2" speed="13.89" length="300.00" shape="-1.60,-186.40 -1.60,100.00"/>
    </edge>
    <edge id="ts_s0" from="ts" to="s0" priority="-1" length="300.00">
        <lane id="ts_s0_0" index="0" speed="13.89" length="300.00" shape="8.00,-213.60 8.00,-500.00"/>
        <lane id="ts_s0_1" index="1" speed="13.89" length="300.00" shape="4.80,-213.60 4.80,-500.00"/>
        <lane id="ts_s0_2" index="2" speed="13.89" length="300.00" shape="1.60,-213.60 1.60,-500.00"/>
    </edge>
    <edge id="ts_w0" from="ts" to="w0" priority="-1" length="300.00">
        <lane id="ts_w0_0" index="0" speed="13.89" length="300.00" shape="-13.60,-208.00 -300.00,-208.00"/>
        <lane id="ts_w0_1" index="1" speed="13.89" length="300.00" shape="-13.60,-204.80 -300.00,-204.80"/>
        <lane id="ts_w0_2" index="2" speed="13.89" length="300.00" shape="-13.60,-201.60 -300.00,-201.60"/>
    </edge>
    <edge id="w0_ts" from="w0" to="ts" priority="-1" length="300.00">
        <lane id="w0_ts_0" index="0" speed="13.89" length="300.00" shape="-300.00,-192.00 -13.60,-192.00"/>
        <lane id="w0_ts_1" index="1" speed="13.89" length="300.00" shape="-300.00,-195.20 -13.60,-195.20"/>
        <lane id="w0_ts_2" index="2" speed="13.89" length="300.00" shape="-300.00,-198.40 -13.60,-198.40"/>
    </edge>

    <tlLogic id="tl" type="static" programID="0" offset="0">
        <phase duration="30" state="GGGGGGgggrrrrrrrrrGGGGGGgggrrrrrrrrr"/>
        <phase duration="2"  state="yyyyyyyyyrrrrrrrrryyyyyyyyyrrrrrrrrr"/>
        <phase duration="3"  state="rrrrrrrrrrrrrrrrrrrrrrrrrrrrrrrrrrrr"/>
        <phase duration="45" state="rrrrrrrrrGGGGGGgggrrrrrrrrrGGGGGGggg"/>
        <phase duration="2"  state="rrrrrrrrryyyyyyyyyrrrrrrrrryyyyyyyyy"/>
        <phase duration="3"  state="rrrrrrrrrrrrrrrrrrrrrrrrrrrrrrrrrrrr"/>
    </tlLogic>

    <junction id="e0" type="dead_end" x="300.00" y="-200.00" incLanes="ts_e0_0 ts_e0_1 ts_e0_2" intLanes="" shape="300.00,-200.00 300.00,-190.40 300.00,-200.00"/>
    <junction id="n0" type="dead_end" x="0.00" y="100.00" incLanes="ts_n0_0 ts_n0_1 ts_n0_2" intLanes="" shape="0.00,100.00 -9.60,100.00 0.00,100.00"/>
    <junction id="s0" type="dead_end" x="0.00" y="-500.00" incLanes="ts_s0_0 ts_s0_1 ts_s0_2" intLanes="" shape="0.00,-500.00 9.60,-500.00 0.00,-500.00"/>
    <junction id="ts" type="traffic_light" x="0.00" y="-200.00" incLanes="s0_ts_0 s0_ts_1 s0_ts_2 e0_ts_0 e0_ts_1 e0_ts_2 n0_ts_0 n0_ts_1 n0_ts_2 w0_ts_0 w0_ts_1 w0_ts_2" intLanes=":ts_0_0 :ts_0_1 :ts_0_2 :ts_3_0 :ts_3_1 :ts_3_2 :ts_36_0 :ts_37_0 :ts_38_0 :ts_9_0 :ts_9_1 :ts_9_2 :ts_12_0 :ts_12_1 :ts_12_2 :ts_39_0 :ts_40_0 :ts_41_0 :ts_18_0 :ts_18_1 :ts_18_2 :ts_21_0 :ts_21_1 :ts_21_2 :ts_42_0 :ts_43_0 :ts_44_0 :ts_27_0 :ts_27_1 :ts_27_2 :ts_30_0 :ts_30_1 :ts_30_2 :ts_45_0 :ts_46_0 :ts_47_0" shape="-9.60,-213.60 9.60,-213.60 10.04,-211.38 10.60,-210.60 11.38,-210.04 12.38,-209.71 13.60,-209.60 13.60,-190.40 11.38,-189.96 10.60,-189.40 10.04,-188.62 9.71,-187.62 9.60,-186.40 -9.60,-186.40 -10.04,-188.62 -10.60,-189.40 -11.38,-189.96 -12.38,-190.29 -13.60,-190.40 -13.60,-209.60 -11.38,-210.04 -10.60,-210.60 -10.04,-211.38 -9.71,-212.38">
        <request index="0"  response="000000000000000000000000000000000000" foes="000000000111000000000111000000000000" cont="0"/>
        <request index="1"  response="000000000000000000000000000000000000" foes="000000000111000000000111000000000000" cont="0"/>
        <request index="2"  response="000000000000000000000000000000000000" foes="000000000111000000000111000000000000" cont="0"/>
        <request index="3"  response="111000000000000000111000000000000000" foes="111111111111000000111111000000000000" cont="0"/>
        <request index="4"  response="111000000000000000111000000000000000" foes="111111111111000000111111000000000000" cont="0"/>
        <request index="5"  response="111000000000000000111000000000000000" foes="111111111111000000111111000000000000" cont="0"/>
        <request index="6"  response="111000000000111111111000000000000000" foes="111111000001111111111111000000000000" cont="1"/>
        <request index="7"  response="111000000000111111111000000000000000" foes="111111000000111111111111000000000000" cont="1"/>
        <request index="8"  response="111000000000111111111000000000000000" foes="111111000000111111111111000000000000" cont="1"/>
        <request index="9"  response="000000000000111000000000000000000000" foes="111000000000111000000000000000000000" cont="0"/>
        <request index="10" response="000000000000111000000000000000000000" foes="111000000000111000000000000000000000" cont="0"/>
        <request index="11" response="000000000000111000000000000000000000" foes="111000000000111000000000000000000000" cont="0"/>
        <request index="12" response="000000000111111000000000000111111111" foes="111000000111111000000000000111111111" cont="0"/>
        <request index="13" response="000000000111111000000000000111111111" foes="111000000111111000000000000111111111" cont="0"/>
        <request index="14" response="000000000111111000000000000111111111" foes="111000000111111000000000000111111111" cont="0"/>
        <request index="15" response="001111111111111000000000000111111000" foes="001111111111111000000000000111111000" cont="1"/>
        <request index="16" response="000111111111111000000000000111111000" foes="000111111111111000000000000111111000" cont="1"/>
        <request index="17" response="000111111111111000000000000111111000" foes="000111111111111000000000000111111000" cont="1"/>
        <request index="18" response="000000000000000000000000000000000000" foes="000111000000000000000000000111000000" cont="0"/>
        <request index="19" response="000000000000000000000000000000000000" foes="000111000000000000000000000111000000" cont="0"/>
        <request index="20" response="000000000000000000000000000000000000" foes="000111000000000000000000000111000000" cont="0"/>
        <request index="21" response="111000000000000000111000000000000000" foes="111111000000000000111111111111000000" cont="0"/>
        <request index="22" response="111000000000000000111000000000000000" foes="111111000000000000111111111111000000" cont="0"/>
        <request index="23" response="111000000000000000111000000000000000" foes="111111000000000000111111111111000000" cont="0"/>
        <request index="24" response="111000000000000000111000000001111111" foes="111111000000000000111111000001111111" cont="1"/>
        <request index="25" response="111000000000000000111000000000111111" foes="111111000000000000111111000000111111" cont="1"/>
        <request index="26" response="111000000000000000111000000000111111" foes="111111000000000000111111000000111111" cont="1"/>
        <request index="27" response="000000000000000000000000000000111000" foes="000000000000000000111000000000111000" cont="0"/>
        <request index="28" response="000000000000000000000000000000111000" foes="000000000000000000111000000000111000" cont="0"/>
        <request index="29" response="000000000000000000000000000000111000" foes="000000000000000000111000000000111000" cont="0"/>
        <request index="30" response="000000000111111111000000000111111000" foes="000000000111111111111000000111111000" cont="0"/>
        <request index="31" response="000000000111111111000000000111111000" foes="000000000111111111111000000111111000" cont="0"/>
        <request index="32" response="000000000111111111000000000111111000" foes="000000000111111111111000000111111000" cont="0"/>
        <request index="33" response="000000000111111000000111111111111000" foes="000000000111111000001111111111111000" cont="1"/>
        <request index="34" response="000000000111111000000111111111111000" foes="000000000111111000000111111111111000" cont="1"/>
        <request index="35" response="000000000111111000000111111111111000" foes="000000000111111000000111111111111000" cont="1"/>
    </junction>
    <junction id="w0" type="dead_end" x="-300.00" y="-200.00" incLanes="ts_w0_0 ts_w0_1 ts_w0_2" intLanes="" shape="-300.00,-200.00 -300.00,-209.60 -300.00,-200.00"/>

    <junction id=":ts_36_0" type="internal" x="-0.90" y="-206.59" incLanes=":ts_6_0 n0_ts_0 n0_ts_1 n0_ts_2" intLanes=":ts_12_0 :ts_12_1 :ts_12_2 :ts_15_0 :ts_15_1 :ts_15_2 :ts_18_0 :ts_18_1 :ts_18_2 :ts_21_0 :ts_21_1 :ts_21_2 :ts_30_0 :ts_30_1 :ts_30_2 :ts_33_0 :ts_33_1 :ts_33_2"/>
    <junction id=":ts_37_0" type="internal" x="-0.89" y="-207.62" incLanes=":ts_6_1 n0_ts_0 n0_ts_1 n0_ts_2" intLanes=":ts_12_0 :ts_12_1 :ts_12_2 :ts_15_0 :ts_15_1 :ts_15_2 :ts_18_0 :ts_18_1 :ts_18_2 :ts_21_0 :ts_21_1 :ts_21_2 :ts_30_0 :ts_30_1 :ts_30_2 :ts_33_0 :ts_33_1 :ts_33_2"/>
    <junction id=":ts_38_0" type="internal" x="-0.89" y="-208.64" incLanes=":ts_6_2 n0_ts_0 n0_ts_1 n0_ts_2" intLanes=":ts_12_0 :ts_12_1 :ts_12_2 :ts_15_0 :ts_15_1 :ts_15_2 :ts_18_0 :ts_18_1 :ts_18_2 :ts_21_0 :ts_21_1 :ts_21_2 :ts_30_0 :ts_30_1 :ts_30_2 :ts_33_0 :ts_33_1 :ts_33_2"/>
    <junction id=":ts_39_0" type="internal" x="6.59" y="-200.90" incLanes=":ts_15_0 w0_ts_0 w0_ts_1 w0_ts_2" intLanes=":ts_3_0 :ts_3_1 :ts_3_2 :ts_6_0 :ts_6_1 :ts_6_2 :ts_21_0 :ts_21_1 :ts_21_2 :ts_24_0 :ts_24_1 :ts_24_2 :ts_27_0 :ts_27_1 :ts_27_2 :ts_30_0 :ts_30_1 :ts_30_2"/>
    <junction id=":ts_40_0" type="internal" x="7.62" y="-200.89" incLanes=":ts_15_1 w0_ts_0 w0_ts_1 w0_ts_2" intLanes=":ts_3_0 :ts_3_1 :ts_3_2 :ts_6_0 :ts_6_1 :ts_6_2 :ts_21_0 :ts_21_1 :ts_21_2 :ts_24_0 :ts_24_1 :ts_24_2 :ts_27_0 :ts_27_1 :ts_27_2 :ts_30_0 :ts_30_1 :ts_30_2"/>
    <junction id=":ts_41_0" type="internal" x="8.64" y="-200.89" incLanes=":ts_15_2 w0_ts_0 w0_ts_1 w0_ts_2" intLanes=":ts_3_0 :ts_3_1 :ts_3_2 :ts_6_0 :ts_6_1 :ts_6_2 :ts_21_0 :ts_21_1 :ts_21_2 :ts_24_0 :ts_24_1 :ts_24_2 :ts_27_0 :ts_27_1 :ts_27_2 :ts_30_0 :ts_30_1 :ts_30_2"/>
    <junction id=":ts_42_0" type="internal" x="0.90" y="-193.41" incLanes=":ts_24_0 s0_ts_0 s0_ts_1 s0_ts_2" intLanes=":ts_0_0 :ts_0_1 :ts_0_2 :ts_3_0 :ts_3_1 :ts_3_2 :ts_12_0 :ts_12_1 :ts_12_2 :ts_15_0 :ts_15_1 :ts_15_2 :ts_30_0 :ts_30_1 :ts_30_2 :ts_33_0 :ts_33_1 :ts_33_2"/>
    <junction id=":ts_43_0" type="internal" x="0.89" y="-192.38" incLanes=":ts_24_1 s0_ts_0 s0_ts_1 s0_ts_2" intLanes=":ts_0_0 :ts_0_1 :ts_0_2 :ts_3_0 :ts_3_1 :ts_3_2 :ts_12_0 :ts_12_1 :ts_12_2 :ts_15_0 :ts_15_1 :ts_15_2 :ts_30_0 :ts_30_1 :ts_30_2 :ts_33_0 :ts_33_1 :ts_33_2"/>
    <junction id=":ts_44_0" type="internal" x="0.89" y="-191.36" incLanes=":ts_24_2 s0_ts_0 s0_ts_1 s0_ts_2" intLanes=":ts_0_0 :ts_0_1 :ts_0_2 :ts_3_0 :ts_3_1 :ts_3_2 :ts_12_0 :ts_12_1 :ts_12_2 :ts_15_0 :ts_15_1 :ts_15_2 :ts_30_0 :ts_30_1 :ts_30_2 :ts_33_0 :ts_33_1 :ts_33_2"/>
    <junction id=":ts_45_0" type="internal" x="-6.59" y="-199.10" incLanes=":ts_33_0 e0_ts_0 e0_ts_1 e0_ts_2" intLanes=":ts_3_0 :ts_3_1 :ts_3_2 :ts_6_0 :ts_6_1 :ts_6_2 :ts_9_0 :ts_9_1 :ts_9_2 :ts_12_0 :ts_12_1 :ts_12_2 :ts_21_0 :ts_21_1 :ts_21_2 :ts_24_0 :ts_24_1 :ts_24_2"/>
    <junction id=":ts_46_0" type="internal" x="-7.62" y="-199.11" incLanes=":ts_33_1 e0_ts_0 e0_ts_1 e0_ts_2" intLanes=":ts_3_0 :ts_3_1 :ts_3_2 :ts_6_0 :ts_6_1 :ts_6_2 :ts_9_0 :ts_9_1 :ts_9_2 :ts_12_0 :ts_12_1 :ts_12_2 :ts_21_0 :ts_21_1 :ts_21_2 :ts_24_0 :ts_24_1 :ts_24_2"/>
    <junction id=":ts_47_0" type="internal" x="-8.64" y="-199.11" incLanes=":ts_33_2 e0_ts_0 e0_ts_1 e0_ts_2" intLanes=":ts_3_0 :ts_3_1 :ts_3_2 :ts_6_0 :ts_6_1 :ts_6_2 :ts_9_0 :ts_9_1 :ts_9_2 :ts_12_0 :ts_12_1 :ts_12_2 :ts_21_0 :ts_21_1 :ts_21_2 :ts_24_0 :ts_24_1 :ts_24_2"/>

    <connection from="e0_ts" to="ts_s0" fromLane="0" toLane="0" via=":ts_9_0" tl="tl" linkIndex="9" dir="l" state="o"/>
    <connection from="e0_ts" to="ts_s0" fromLane="0" toLane="1" via=":ts_9_1" tl="tl" linkIndex="10" dir="l" state="o"/>
    <connection from="e0_ts" to="ts_s0" fromLane="0" toLane="2" via=":ts_9_2" tl="tl" linkIndex="11" dir="l" state="o"/>
    <connection from="e0_ts" to="ts_w0" fromLane="0" toLane="0" via=":ts_12_0" tl="tl" linkIndex="12" dir="s" state="o"/>
    <connection from="e0_ts" to="ts_w0" fromLane="1" toLane="1" via=":ts_12_1" tl="tl" linkIndex="13" dir="s" state="o"/>
    <connection from="e0_ts" to="ts_w0" fromLane="2" toLane="2" via=":ts_12_2" tl="tl" linkIndex="14" dir="s" state="o"/>
    <connection from="e0_ts" to="ts_n0" fromLane="2" toLane="0" via=":ts_15_0" tl="tl" linkIndex="15" dir="r" state="o"/>
    <connection from="e0_ts" to="ts_n0" fromLane="2" toLane="1" via=":ts_15_1" tl="tl" linkIndex="16" dir="r" state="o"/>
    <connection from="e0_ts" to="ts_n0" fromLane="2" toLane="2" via=":ts_15_2" tl="tl" linkIndex="17" dir="r" state="o"/>
    <connection from="n0_ts" to="ts_e0" fromLane="0" toLane="0" via=":ts_18_0" tl="tl" linkIndex="18" dir="l" state="O"/>
    <connection from="n0_ts" to="ts_e0" fromLane="0" toLane="1" via=":ts_18_1" tl="tl" linkIndex="19" dir="l" state="O"/>
    <connection from="n0_ts" to="ts_e0" fromLane="0" toLane="2" via=":ts_18_2" tl="tl" linkIndex="20" dir="l" state="O"/>
    <connection from="n0_ts" to="ts_s0" fromLane="0" toLane="0" via=":ts_21_0" tl="tl" linkIndex="21" dir="s" state="O"/>
    <connection from="n0_ts" to="ts_s0" fromLane="1" toLane="1" via=":ts_21_1" tl="tl" linkIndex="22" dir="s" state="O"/>
    <connection from="n0_ts" to="ts_s0" fromLane="2" toLane="2" via=":ts_21_2" tl="tl" linkIndex="23" dir="s" state="O"/>
    <connection from="n0_ts" to="ts_w0" fromLane="2" toLane="0" via=":ts_24_0" tl="tl" linkIndex="24" dir="r" state="o"/>
    <connection from="n0_ts" to="ts_w0" fromLane="2" toLane="1" via=":ts_24_1" tl="tl" linkIndex="25" dir="r" state="o"/>
    <connection from="n0_ts" to="ts_w0" fromLane="2" toLane="2" via=":ts_24_2" tl="tl" linkIndex="26" dir="r" state="o"/>
    <connection from="s0_ts" to="ts_w0" fromLane="0" toLane="0" via=":ts_0_0" tl="tl" linkIndex="0" dir="l" state="O"/>
    <connection from="s0_ts" to="ts_w0" fromLane="0" toLane="1" via=":ts_0_1" tl="tl" linkIndex="1" dir="l" state="O"/>
    <connection from="s0_ts" to="ts_w0" fromLane="0" toLane="2" via=":ts_0_2" tl="tl" linkIndex="2" dir="l" state="O"/>
    <connection from="s0_ts" to="ts_n0" fromLane="0" toLane="0" via=":ts_3_0" tl="tl" linkIndex="3" dir="s" state="O"/>
    <connection from="s0_ts" to="ts_n0" fromLane="1" toLane="1" via=":ts_3_1" tl="tl" linkIndex="4" dir="s" state="O"/>
    <connection from="s0_ts" to="ts_n0" fromLane="2" toLane="2" via=":ts_3_2" tl="tl" linkIndex="5" dir="s" state="O"/>
    <connection from="s0_ts" to="ts_e0" fromLane="2" toLane="0" via=":ts_6_0" tl="tl" linkIndex="6" dir="r" state="o"/>
    <connection from="s0_ts" to="ts_e0" fromLane="2" toLane="1" via=":ts_6_1" tl="tl" linkIndex="7" dir="r" state="o"/>
    <connection from="s0_ts" to="ts_e0" fromLane="2" toLane="2" via=":ts_6_2" tl="tl" linkIndex="8" dir="r" state="o"/>
    <connection from="w0_ts" to="ts_n0" fromLane="0" toLane="0" via=":ts_27_0" tl="tl" linkIndex="27" dir="l" state="o"/>
    <connection from="w0_ts" to="ts_n0" fromLane="0" toLane="1" via=":ts_27_1" tl="tl" linkIndex="28" dir="l" state="o"/>
    <connection from="w0_ts" to="ts_n0" fromLane="0" toLane="2" via=":ts_27_2" tl="tl" linkIndex="29" dir="l" state="o"/>
    <connection from="w0_ts" to="ts_e0" fromLane="0" toLane="0" via=":ts_30_0" tl="tl" linkIndex="30" dir="s" state="o"/>
    <connection from="w0_ts" to="ts_e0" fromLane="1" toLane="1" via=":ts_30_1" tl="tl" linkIndex="31" dir="s" state="o"/>
    <connection from="w0_ts" to="ts_e0" fromLane="2" toLane="2" via=":ts_30_2" tl="tl" linkIndex="32" dir="s" state="o"/>
    <connection from="w0_ts" to="ts_s0" fromLane="2" toLane="0" via=":ts_33_0" tl="tl" linkIndex="33" dir="r" state="o"/>
    <connection from="w0_ts" to="ts_s0" fromLane="2" toLane="1" via=":ts_33_1" tl="tl" linkIndex="34" dir="r" state="o"/>
    <connection from="w0_ts" to="ts_s0" fromLane="2" toLane="2" via=":ts_33_2" tl="tl" linkIndex="35" dir="r" state="o"/>

    <connection from=":ts_0" to="ts_w0" fromLane="0" toLane="0" dir="l" state="M"/>
    <connection from=":ts_0" to="ts_w0" fromLane="1" toLane="1" dir="l" state="M"/>
    <connection from=":ts_0" to="ts_w0" fromLane="2" toLane="2" dir="l" state="M"/>
    <connection from=":ts_3" to="ts_n0" fromLane="0" toLane="0" dir="s" state="M"/>
    <connection from=":ts_3" to="ts_n0" fromLane="1" toLane="1" dir="s" state="M"/>
    <connection from=":ts_3" to="ts_n0" fromLane="2" toLane="2" dir="s" state="M"/>
    <connection from=":ts_6" to="ts_e0" fromLane="0" toLane="0" via=":ts_36_0" dir="r" state="m"/>
    <connection from=":ts_36" to="ts_e0" fromLane="0" toLane="0" dir="r" state="M"/>
    <connection from=":ts_6" to="ts_e0" fromLane="1" toLane="1" via=":ts_37_0" dir="r" state="m"/>
    <connection from=":ts_37" to="ts_e0" fromLane="0" toLane="1" dir="r" state="M"/>
    <connection from=":ts_6" to="ts_e0" fromLane="2" toLane="2" via=":ts_38_0" dir="r" state="m"/>
    <connection from=":ts_38" to="ts_e0" fromLane="0" toLane="2" dir="r" state="M"/>
    <connection from=":ts_9" to="ts_s0" fromLane="0" toLane="0" dir="l" state="M"/>
    <connection from=":ts_9" to="ts_s0" fromLane="1" toLane="1" dir="l" state="M"/>
    <connection from=":ts_9" to="ts_s0" fromLane="2" toLane="2" dir="l" state="M"/>
    <connection from=":ts_12" to="ts_w0" fromLane="0" toLane="0" dir="s" state="M"/>
    <connection from=":ts_12" to="ts_w0" fromLane="1" toLane="1" dir="s" state="M"/>
    <connection from=":ts_12" to="ts_w0" fromLane="2" toLane="2" dir="s" state="M"/>
    <connection from=":ts_15" to="ts_n0" fromLane="0" toLane="0" via=":ts_39_0" dir="r" state="m"/>
    <connection from=":ts_39" to="ts_n0" fromLane="0" toLane="0" dir="r" state="M"/>
    <connection from=":ts_15" to="ts_n0" fromLane="1" toLane="1" via=":ts_40_0" dir="r" state="m"/>
    <connection from=":ts_40" to="ts_n0" fromLane="0" toLane="1" dir="r" state="M"/>
    <connection from=":ts_15" to="ts_n0" fromLane="2" toLane="2" via=":ts_41_0" dir="r" state="m"/>
    <connection from=":ts_41" to="ts_n0" fromLane="0" toLane="2" dir="r" state="M"/>
    <connection from=":ts_18" to="ts_e0" fromLane="0" toLane="0" dir="l" state="M"/>
    <connection from=":ts_18" to="ts_e0" fromLane="1" toLane="1" dir="l" state="M"/>
    <connection from=":ts_18" to="ts_e0" fromLane="2" toLane="2" dir="l" state="M"/>
    <connection from=":ts_21" to="ts_s0" fromLane="0" toLane="0" dir="s" state="M"/>
    <connection from=":ts_21" to="ts_s0" fromLane="1" toLane="1" dir="s" state="M"/>
    <connection from=":ts_21" to="ts_s0" fromLane="2" toLane="2" dir="s" state="M"/>
    <connection from=":ts_24" to="ts_w0" fromLane="0" toLane="0" via=":ts_42_0" dir="r" state="m"/>
    <connection from=":ts_42" to="ts_w0" fromLane="0" toLane="0" dir="r" state="M"/>
    <connection from=":ts_24" to="ts_w0" fromLane="1" toLane="1" via=":ts_43_0" dir="r" state="m"/>
    <connection from=":ts_43" to="ts_w0" fromLane="0" toLane="1" dir="r" state="M"/>
    <connection from=":ts_24" to="ts_w0" fromLane="2" toLane="2" via=":ts_44_0" dir="r" state="m"/>
    <connection from=":ts_44" to="ts_w0" fromLane="0" toLane="2" dir="r" state="M"/>
    <connection from=":ts_27" to="ts_n0" fromLane="0" toLane="0" dir="l" state="M"/>
    <connection from=":ts_27" to="ts_n0" fromLane="1" toLane="1" dir="l" state="M"/>
    <connection from=":ts_27" to="ts_n0" fromLane="2" toLane="2" dir="l" state="M"/>
    <connection from=":ts_30" to="ts_e0" fromLane="0" toLane="0" dir="s" state="M"/>