<?xml version="1.0" encoding="UTF-8"?>

<!-- generated on 2024-11-19 15:33:37 by Eclipse SUMO netedit Version 1.20.0
<configuration xmlns:xsi="http://www.w3.org/2001/XMLSchema-instance" xsi:noNamespaceSchemaLocation="http://sumo.dlr.de/xsd/neteditConfiguration.xsd">

    <input>
        <sumo-net-file value="/Users/chashu/Desktop/dev/sumorl-venv/app/data/6road_intersection/net/2way.net.xml"/>
    </input>

    <output>
        <output-file value="/Users/chashu/Desktop/dev/sumorl-venv/app/data/6road_intersection/net/2way.net.xml"/>
    </output>

    <processing>
        <geometry.min-radius.fix.railways value="false"/>
        <geometry.max-grade.fix value="false"/>
        <offset.disable-normalization value="true"/>
        <lefthand value="1"/>
    </processing>

    <junctions>
        <no-turnarounds value="true"/>
        <junctions.corner-detail value="5"/>
        <junctions.limit-turn-speed value="5.50"/>
        <rectangular-lane-cut value="0"/>
    </junctions>

    <pedestrian>
        <walkingareas value="0"/>
    </pedestrian>

</configuration>
-->

<net version="1.20" junctionCornerDetail="5" lefthand="true" limitTurnSpeed="5.50" xmlns:xsi="http://www.w3.org/2001/XMLSchema-instance" xsi:noNamespaceSchemaLocation="http://sumo.dlr.de/xsd/net_file.xsd">

    <location netOffset="0.00,0.00" convBoundary="-200.00,-400.00,400.00,200.00" origBoundary="-10000000000.00,-10000000000.00,10000000000.00,10000000000.00" projParameter="!"/>

    <edge id=":ts_0" function="internal">
        <lane id=":ts_0_0" index="0" speed="5.61" length="9.32" shape="95.20,-115.96 94.84,-113.14 93.75,-111.69 91.93,-111.59 89.38,-112.85"/>
        <lane id=":ts_0_1" index="1" speed="6.56" length="13.35" shape="95.20,-115.96 94.73,-111.53 93.30,-109.10 90.93,-108.65 87.61,-110.18"/>
    </edge>
    <edge id=":ts_2" function="internal">
        <lane id=":ts_2_0" index="0" speed="13.87" length="24.63" shape="95.20,-115.96 94.50,-109.64 92.41,-104.06 88.93,-99.23 84.06,-95.14"/>
        <lane id=":ts_2_1" index="1" speed="13.89" length="26.29" shape="95.20,-115.96 94.61,-108.03 92.86,-101.47 89.93,-96.29 85.83,-92.48"/>
    </edge>
    <edge id=":ts_4" function="internal">
        <lane id=":ts_4_0" index="0" speed="13.89" length="31.92" shape="95.20,-115.96 95.20,-84.04"/>
        <lane id=":ts_4_1" index="1" speed="13.89" length="31.92" shape="98.40,-115.96 98.40,-84.04"/>
    </edge>
    <edge id=":ts_6" function="internal">
        <lane id=":ts_6_0" index="0" speed="13.89" length="32.57" shape="98.40,-115.96 99.16,-106.41 101.45,-98.43 105.27,-92.01 110.62,-87.15"/>
        <lane id=":ts_6_1" index="1" speed="13.89" length="30.93" shape="98.40,-115.96 99.27,-108.02 101.90,-101.02 106.27,-94.95 112.39,-89.82"/>
    </edge>
    <edge id=":ts_8" function="internal">
        <lane id=":ts_8_0" index="0" speed="9.05" length="26.74" shape="98.40,-115.96 99.79,-108.46 103.57,-103.68 109.15,-102.27 115.94,-104.86"/>
        <lane id=":ts_8_1" index="1" speed="8.81" length="25.26" shape="98.40,-115.96 99.39,-108.33 102.34,-104.38 107.27,-104.11 114.17,-107.52"/>
    </edge>
    <edge id=":ts_10" function="internal">
        <lane id=":ts_10_0" index="0" speed="5.61" length="9.32" shape="110.62,-112.85 108.07,-111.59 106.25,-111.69 105.16,-113.14 104.80,-115.96"/>
        <lane id=":ts_10_1" index="1" speed="6.56" length="13.35" shape="110.62,-112.85 106.67,-110.79 103.85,-110.62 102.16,-112.34 101.60,-115.96"/>
    </edge>
    <edge id=":ts_12" function="internal">
        <lane id=":ts_12_0" index="0" speed="11.86" length="22.63" shape="110.62,-112.85 105.31,-110.19 100.00,-109.31 94.69,-110.19 89.38,-112.85"/>
        <lane id=":ts_12_1" index="1" speed="12.34" length="24.60" shape="110.62,-112.85 104.12,-109.30 98.11,-107.68 92.61,-107.97 87.61,-110.18"/>
    </edge>
    <edge id=":ts_14" function="internal">
        <lane id=":ts_14_0" index="0" speed="13.89" length="31.92" shape="110.62,-112.85 84.06,-95.14"/>
        <lane id=":ts_14_1" index="1" speed="13.89" length="31.92" shape="112.39,-110.18 85.83,-92.48"/>
    </edge>
    <edge id=":ts_16" function="internal">
        <lane id=":ts_16_0" index="0" speed="13.89" length="32.57" shape="112.39,-110.18 104.87,-104.25 99.50,-97.92 96.27,-91.18 95.20,-84.04"/>
        <lane id=":ts_16_1" index="1" speed="13.89" length="30.93" shape="112.39,-110.18 106.27,-105.05 101.90,-98.98 99.27,-91.98 98.40,-84.04"/>
    </edge>
    <edge id=":ts_18" function="internal">
        <lane id=":ts_18_0" index="0" speed="9.90" length="28.97" shape="112.39,-110.18 106.11,-104.58 103.50,-98.67 104.89,-92.75 110.62,-87.15"/>
        <lane id=":ts_18_1" index="1" speed="9.43" length="26.20" shape="112.39,-110.18 106.66,-105.09 104.75,-100.00 106.66,-94.91 112.39,-89.82"/>
    </edge>
    <edge id=":ts_20" function="internal">
        <lane id=":ts_20_0" index="0" speed="6.69" length="12.50" shape="115.94,-95.14 113.21,-97.57 112.30,-100.00 113.21,-102.43 115.94,-104.86"/>
        <lane id=":ts_20_1" index="1" speed="7.48" length="15.98" shape="115.94,-95.14 112.02,-98.46 110.41,-101.63 111.13,-104.65 114.17,-107.52"/>
    </edge>
    <edge id=":ts_22" function="internal">
        <lane id=":ts_22_0" index="0" speed="13.87" length="24.63" shape="115.94,-95.14 111.07,-99.23 107.59,-104.06 105.50,-109.64 104.80,-115.96"/>
        <lane id=":ts_22_1" index="1" speed="13.89" length="26.29" shape="115.94,-95.14 109.67,-100.03 105.19,-105.13 102.50,-110.44 101.60,-115.96"/>
    </edge>
    <edge id=":ts_24" function="internal">
        <lane id=":ts_24_0" index="0" speed="13.89" length="31.92" shape="115.94,-95.14 89.38,-112.85"/>
        <lane id=":ts_24_1" index="1" speed="13.89" length="31.92" shape="114.17,-92.48 87.61,-110.18"/>
    </edge>
    <edge id=":ts_26" function="internal">
        <lane id=":ts_26_0" index="0" speed="13.89" length="32.15" shape="114.17,-92.48 105.89,-96.91 98.11,-98.83 90.84,-98.24 84.06,-95.14"/>
        <lane id=":ts_26_1" index="1" speed="13.64" length="30.20" shape="114.17,-92.48 107.08,-96.02 100.00,-97.20 92.92,-96.02 85.83,-92.48"/>
    </edge>
    <edge id=":ts_28" function="internal">
        <lane id=":ts_28_0" index="0" speed="9.05" length="26.74" shape="114.17,-92.48 107.15,-95.48 101.08,-94.98 96.81,-91.12 95.20,-84.04"/>
        <lane id=":ts_28_1" index="1" speed="8.81" length="25.26" shape="114.17,-92.48 107.27,-95.89 102.34,-95.62 99.39,-91.67 98.40,-84.04"/>
    </edge>
    <edge id=":ts_30" function="internal">
        <lane id=":ts_30_0" index="0" speed="5.61" length="9.32" shape="104.80,-84.04 105.16,-86.86 106.25,-88.31 108.07,-88.41 110.62,-87.15"/>
        <lane id=":ts_30_1" index="1" speed="6.56" length="13.35" shape="104.80,-84.04 105.27,-88.47 106.70,-90.90 109.07,-91.35 112.39,-89.82"/>
    </edge>
    <edge id=":ts_32" function="internal">
        <lane id=":ts_32_0" index="0" speed="13.87" length="24.63" shape="104.80,-84.04 105.50,-90.36 107.59,-95.94 111.07,-100.77 115.94,-104.86"/>
        <lane id=":ts_32_1" index="1" speed="13.89" length="26.29" shape="104.80,-84.04 105.39,-91.97 107.14,-98.53 110.07,-103.71 114.17,-107.52"/>
    </edge>
    <edge id=":ts_34" function="internal">
        <lane id=":ts_34_0" index="0" speed="13.89" length="31.92" shape="104.80,-84.04 104.80,-115.96"/>
        <lane id=":ts_34_1" index="1" speed="13.89" length="31.92" shape="101.60,-84.04 101.60,-115.96"/>
    </edge>
    <edge id=":ts_36" function="internal">
        <lane id=":ts_36_0" index="0" speed="13.89" length="32.57" shape="101.60,-84.04 100.84,-93.59 98.55,-101.57 94.73,-107.99 89.38,-112.85"/>
        <lane id=":ts_36_1" index="1" speed="13.89" length="30.93" shape="101.60,-84.04 100.73,-91.98 98.10,-98.98 93.73,-105.05 87.61,-110.18"/>
    </edge>
    <edge id=":ts_38" function="internal">
        <lane id=":ts_38_0" index="0" speed="9.05" length="26.74" shape="101.60,-84.04 100.21,-91.54 96.43,-96.32 90.85,-97.73 84.06,-95.14"/>
        <lane id=":ts_38_1" index="1" speed="8.81" length="25.26" shape="101.60,-84.04 100.61,-91.67 97.66,-95.62 92.73,-95.89 85.83,-92.48"/>
    </edge>
    <edge id=":ts_40" function="internal">
        <lane id=":ts_40_0" index="0" speed="5.61" length="9.32" shape="89.38,-87.15 91.93,-88.41 93.75,-88.31 94.84,-86.86 95.20,-84.04"/>
        <lane id=":ts_40_1" index="1" speed="6.56" length="13.35" shape="89.38,-87.15 93.33,-89.21 96.15,-89.38 97.84,-87.66 98.40,-84.04"/>
    </edge>
    <edge id=":ts_42" function="internal">
        <lane id=":ts_42_0" index="0" speed="11.86" length="22.63" shape="89.38,-87.15 94.69,-89.81 100.00,-90.69 105.31,-89.81 110.62,-87.15"/>
        <lane id=":ts_42_1" index="1" speed="12.34" length="24.60" shape="89.38,-87.15 95.88,-90.70 101.89,-92.32 107.39,-92.03 112.39,-89.82"/>
    </edge>
    <edge id=":ts_44" function="internal">
        <lane id=":ts_44_0" index="0" speed="13.89" length="31.92" shape="89.38,-87.15 115.94,-104.86"/>
        <lane id=":ts_44_1" index="1" speed="13.89" length="31.92" shape="87.61,-89.82 114.17,-107.52"/>
    </edge>
    <edge id=":ts_46" function="internal">
        <lane id=":ts_46_0" index="0" speed="13.89" length="32.57" shape="87.61,-89.82 95.13,-95.75 100.50,-102.08 103.73,-108.82 104.80,-115.96"/>
        <lane id=":ts_46_1" index="1" speed="13.89" length="30.93" shape="87.61,-89.82 93.73,-94.95 98.10,-101.02 100.73,-108.02 101.60,-115.96"/>
    </edge>
    <edge id=":ts_48" function="internal">
        <lane id=":ts_48_0" index="0" speed="9.90" length="28.97" shape="87.61,-89.82 93.89,-95.42 96.50,-101.33 95.11,-107.25 89.38,-112.85"/>
        <lane id=":ts_48_1" index="1" speed="9.43" length="26.20" shape="87.61,-89.82 93.34,-94.91 95.25,-100.00 93.34,-105.09 87.61,-110.18"/>
    </edge>
    <edge id=":ts_50" function="internal">
        <lane id=":ts_50_0" index="0" speed="6.69" length="12.50" shape="84.06,-104.86 86.79,-102.43 87.70,-100.00 86.79,-97.57 84.06,-95.14"/>
        <lane id=":ts_50_1" index="1" speed="7.48" length="15.98" shape="84.06,-104.86 87.98,-101.54 89.59,-98.37 88.87,-95.35 85.83,-92.48"/>
    </edge>
    <edge id=":ts_52" function="internal">
        <lane id=":ts_52_0" index="0" speed="13.87" length="24.63" shape="84.06,-104.86 88.93,-100.77 92.41,-95.94 94.50,-90.36 95.20,-84.04"/>
        <lane id=":ts_52_1" index="1" speed="13.89" length="26.29" shape="84.06,-104.86 90.33,-99.97 94.81,-94.87 97.50,-89.56 98.40,-84.04"/>
    </edge>
    <edge id=":ts_54" function="internal">
        <lane id=":ts_54_0" index="0" speed="13.89" length="31.92" shape="84.06,-104.86 110.62,-87.15"/>
        <lane id=":ts_54_1" index="1" speed="13.89" length="31.92" shape="85.83,-107.52 112.39,-89.82"/>
    </edge>
    <edge id=":ts_56" function="internal">
        <lane id=":ts_56_0" index="0" speed="13.89" length="32.15" shape="85.83,-107.52 94.11,-103.09 101.89,-101.17 109.16,-101.76 115.94,-104.86"/>
        <lane id=":ts_56_1" index="1" speed="13.64" length="30.20" shape="85.83,-107.52 92.92,-103.98 100.00,-102.80 107.08,-103.98 114.17,-107.52"/>
    </edge>
    <edge id=":ts_58" function="internal">
        <lane id=":ts_58_0" index="0" speed="9.05" length="26.74" shape="85.83,-107.52 92.85,-104.52 98.92,-105.02 103.19,-108.88 104.80,-115.96"/>
        <lane id=":ts_58_1" index="1" speed="8.81" length="25.26" shape="85.83,-107.52 92.73,-104.11 97.66,-104.38 100.61,-108.33 101.60,-115.96"/>
    </edge>

    <edge id="n0_ts" from="n0" to="ts" priority="-1">
        <lane id="n0_ts_0" index="0" speed="13.89" length="284.04" shape="104.80,200.00 104.80,-84.04"/>
        <lane id="n0_ts_1" index="1" speed="13.89" length="284.04" shape="101.60,200.00 101.60,-84.04"/>
    </edge>
    <edge id="ne0_ts" from="ne0" to="ts" priority="-1">
        <lane id="ne0_ts_0" index="0" speed="13.89" length="344.60" shape="402.66,96.01 115.94,-95.14"/>
        <lane id="ne0_ts_1" index="1" speed="13.89" length="344.60" shape="400.89,98.67 114.17,-92.48"/>
    </edge>
    <edge id="nw0_ts" from="nw0" to="ts" priority="-1">
        <lane id="nw0_ts_0" index="0" speed="13.89" length="344.60" shape="-197.34,103.99 89.38,-87.15"/>
        <lane id="nw0_ts_1" index="1" speed="13.89" length="344.60" shape="-199.11,101.33 87.61,-89.82"/>
    </edge>
    <edge id="s0_ts" from="s0" to="ts" priority="-1">
        <lane id="s0_ts_0" index="0" speed="13.89" length="284.04" shape="95.20,-400.00 95.20,-115.96"/>
        <lane id="s0_ts_1" index="1" speed="13.89" length="284.04" shape="98.40,-400.00 98.40,-115.96"/>
    </edge>
    <edge id="se0_ts" from="se0" to="ts" priority="-1">
        <lane id="se0_ts_0" index="0" speed="13.89" length="344.60" shape="397.34,-303.99 110.62,-112.85"/>
        <lane id="se0_ts_1" index="1" speed="13.89" length="344.60" shape="399.11,-301.33 112.39,-110.18"/>
    </edge>
    <edge id="sw0_ts" from="sw0" to="ts" priority="-1">
        <lane id="sw0_ts_0" index="0" speed="13.89" length="344.60" shape="-202.66,-296.01 84.06,-104.86"/>
        <lane id="sw0_ts_1" index="1" speed="13.89" length="344.60" shape="-200.89,-298.67 85.83,-107.52"/>
    </edge>
    <edge id="ts_n0" from="ts" to="n0" priority="-1">
        <lane id="ts_n0_0" index="0" speed="13.89" length="284.04" shape="95.20,-84.04 95.20,200.00"/>
        <lane id="ts_n0_1" index="1" speed="13.89" length="284.04" shape="98.40,-84.04 98.40,200.00"/>
    </edge>
    <edge id="ts_ne0" from="ts" to="ne0" priority="-1">
        <lane id="ts_ne0_0" index="0" speed="13.89" length="344.60" shape="110.62,-87.15 397.34,103.99"/>
        <lane id="ts_ne0_1" index="1" speed="13.89" length="344.60" shape="112.39,-89.82 399.11,101.33"/>
    </edge>
    <edge id="ts_nw0" from="ts" to="nw0" priority="-1">
        <lane id="ts_nw0_0" index="0" speed="13.89" length="344.60" shape="84.06,-95.14 -202.66,96.01"/>
        <lane id="ts_nw0_1" index="1" speed="13.89" length="344.60" shape="85.83,-92.48 -200.89,98.67"/>
    </edge>
    <edge id="ts_s0" from="ts" to="s0" priority="-1">
        <lane id="ts_s0_0" index="0" speed="13.89" length="284.04" shape="104.80,-115.96 104.80,-400.00"/>
        <lane id="ts_s0_1" index="1" speed="13.89" length="284.04" shape="101.60,-115.96 101.60,-400.00"/>
    </edge>
    <edge id="ts_se0" from="ts" to="se0" priority="-1">
        <lane id="ts_se0_0" index="0" speed="13.89" length="344.60" shape="115.94,-104.86 402.66,-296.01"/>
        <lane id="ts_se0_1" index="1" speed="13.89" length="344.60" shape="114.17,-107.52 400.89,-298.67"/>
    </edge>
    <edge id="ts_sw0" from="ts" to="sw0" priority="-1">
        <lane id="ts_sw0_0" index="0" speed="13.89" length="344.60" shape="89.38,-112.85 -197.34,-303.99"/>
        <lane id="ts_sw0_1" index="1" speed="13.89" length="344.60" shape="87.61,-110.18 -199.11,-301.33"/>
    </edge>

    <tlLogic id="tl" type="static" programID="0" offset="0">
        <phase duration="30" state="rrrrrrrrrrrrrrrrrrrrrrrrrrrrrrGGGGGGGGGGrrrrrrrrrrrrrrrrrrrr"/>
        <phase duration="2"  state="rrrrrrrrrrrrrrrrrrrrrrrrrrrrrryyyyyyyyyyrrrrrrrrrrrrrrrrrrrr"/>
        <phase duration="3"  state="rrrrrrrrrrrrrrrrrrrrrrrrrrrrrrrrrrrrrrrrrrrrrrrrrrrrrrrrrrrr"/>
        <phase duration="15" state="rrrrrrrrrrrrrrrrrrrrrrrrrrrrrrrrrrrrrrrrGGGGGGGGGGrrrrrrrrrr"/>
        <phase duration="2"  state="rrrrrrrrrrrrrrrrrrrrrrrrrrrrrrrrrrrrrrrryyyyyyyyyyrrrrrrrrrr"/>
        <phase duration="3"  state="rrrrrrrrrrrrrrrrrrrrrrrrrrrrrrrrrrrrrrrrrrrrrrrrrrrrrrrrrrrr"/>
        <phase duration="15" state="rrrrrrrrrrrrrrrrrrrrrrrrrrrrrrrrrrrrrrrrrrrrrrrrrrGGGGGGGGGG"/>
        <phase duration="2"  state="rrrrrrrrrrrrrrrrrrrrrrrrrrrrrrrrrrrrrrrrrrrrrrrrrryyyyyyyyyy"/>
        <phase duration="3"  state="rrrrrrrrrrrrrrrrrrrrrrrrrrrrrrrrrrrrrrrrrrrrrrrrrrrrrrrrrrrr"/>
        <phase duration="30" state="GGGGGGGGGGrrrrrrrrrrrrrrrrrrrrrrrrrrrrrrrrrrrrrrrrrrrrrrrrrr"/>
        <phase duration="2"  state="yyyyyyyyyyrrrrrrrrrrrrrrrrrrrrrrrrrrrrrrrrrrrrrrrrrrrrrrrrrr"/>
        <phase duration="3"  state="rrrrrrrrrrrrrrrrrrrrrrrrrrrrrrrrrrrrrrrrrrrrrrrrrrrrrrrrrrrr"/>
        <phase duration="15" state="rrrrrrrrrrGGGGGGGGGGrrrrrrrrrrrrrrrrrrrrrrrrrrrrrrrrrrrrrrrr"/>
        <phase duration="2"  state="rrrrrrrrrryyyyyyyyyyrrrrrrrrrrrrrrrrrrrrrrrrrrrrrrrrrrrrrrrr"/>
        <phase duration="3"  state="rrrrrrrrrrrrrrrrrrrrrrrrrrrrrrrrrrrrrrrrrrrrrrrrrrrrrrrrrrrr"/>
        <phase duration="15" state="rrrrrrrrrrrrrrrrrrrrGGGGGGGGGGrrrrrrrrrrrrrrrrrrrrrrrrrrrrrr"/>
        <phase duration="2"  state="rrrrrrrrrrrrrrrrrrrryyyyyyyyyyrrrrrrrrrrrrrrrrrrrrrrrrrrrrrr"/>
        <phase duration="3"  state="rrrrrrrrrrrrrrrrrrrrrrrrrrrrrrrrrrrrrrrrrrrrrrrrrrrrrrrrrrrr"/>
    </tlLogic>

    <junction id="n0" type="dead_end" x="100.00" y="200.00" incLanes="ts_n0_0 ts_n0_1" intLanes="" shape="100.00,200.00 93.60,200.00 100.00,200.00"/>
    <junction id="ne0" type="dead_end" x="400.00" y="100.00" incLanes="ts_ne0_0 ts_ne0_1" intLanes="" shape="400.00,100.00 396.45,105.33 400.00,100.00"/>
    <junction id="nw0" type="dead_end" x="-200.00" y="100.00" incLanes="ts_nw0_0 ts_nw0_1" intLanes="" shape="-200.00,100.00 -203.55,94.67 -200.00,100.00"/>
    <junction id="s0" type="dead_end" x="100.00" y="-400.00" incLanes="ts_s0_0 ts_s0_1" intLanes="" shape="100.00,-400.00 106.40,-400.00 100.00,-400.00"/>
    <junction id="se0" type="dead_end" x="400.00" y="-300.00" incLanes="ts_se0_0 ts_se0_1" intLanes="" shape="400.00,-300.00 403.55,-294.67 400.00,-300.00"/>
    <junction id="sw0" type="dead_end" x="-200.00" y="-300.00" incLanes="ts_sw0_0 ts_sw0_1" intLanes="" shape="-200.00,-300.00 -196.45,-305.33 -200.00,-300.00"/>
    <junction id="ts" type="traffic_light" x="100.00" y="-100.00" incLanes="s0_ts_0 s0_ts_1 se0_ts_0 se0_ts_1 ne0_ts_0 ne0_ts_1 n0_ts_0 n0_ts_1 nw0_ts_0 nw0_ts_1 sw0_ts_0 sw0_ts_1" intLanes=":ts_0_0 :ts_0_1 :ts_2_0 :ts_2_1 :ts_4_0 :ts_4_1 :ts_6_0 :ts_6_1 :ts_8_0 :ts_8_1 :ts_10_0 :ts_10_1 :ts_12_0 :ts_12_1 :ts_14_0 :ts_14_1 :ts_16_0 :ts_16_1 :ts_18_0 :ts_18_1 :ts_20_0 :ts_20_1 :ts_22_0 :ts_22_1 :ts_24_0 :ts_24_1 :ts_26_0 :ts_26_1 :ts_28_0 :ts_28_1 :ts_30_0 :ts_30_1 :ts_32_0 :ts_32_1 :ts_34_0 :ts_34_1 :ts_36_0 :ts_36_1 :ts_38_0 :ts_38_1 :ts_40_0 :ts_40_1 :ts_42_0 :ts_42_1 :ts_44_0 :ts_44_1 :ts_46_0 :ts_46_1 :ts_48_0 :ts_48_1 :ts_50_0 :ts_50_1 :ts_52_0 :ts_52_1 :ts_54_0 :ts_54_1 :ts_56_0 :ts_56_1 :ts_58_0 :ts_58_1" shape="93.60,-115.96 106.40,-115.96 106.77,-113.98 107.23,-113.51 107.88,-113.39 108.71,-113.61 109.73,-114.18 116.83,-103.53 114.48,-101.18 114.18,-100.00 114.48,-98.82 115.36,-97.65 116.83,-96.47 109.73,-85.82 107.88,-86.61 107.23,-86.49 106.77,-86.02 106.49,-85.20 106.40,-84.04 93.60,-84.04 93.23,-86.02 92.77,-86.49 92.12,-86.61 91.29,-86.39 90.27,-85.82 83.17,-96.47 85.52,-98.82 85.82,-100.00 85.52,-101.18 84.64,-102.35 83.17,-103.53 90.27,-114.18 92.12,-113.39 92.77,-113.51 93.23,-113.98 93.51,-114.80">
        <request index="0"  response="000000000000000000000000000000000000000000000000000000000000" foes="000000000011000000000011000000000011000000000011000000000000" cont="0"/>
        <request index="1"  response="000000000000000000000000000000000000000000000000000000000000" foes="000000000011000000000011000000000011000000000011000000000000" cont="0"/>
        <request index="2"  response="000000000000000000000000000000000000000000000000000000000000" foes="111111111111000000001111000000001111000000001111000000000000" cont="0"/>
        <request index="3"  response="000000000000000000000000000000000000000000000000000000000000" foes="111111111111000000001111000000001111000000001111000000000000" cont="0"/>
        <request index="4"  response="000000000000000000000000000000000000000000000000000000000000" foes="111111110000111111111111000000111111000000111111000000000000" cont="0"/>
        <request index="5"  response="000000000000000000000000000000000000000000000000000000000000" foes="111111110000111111111111000000111111000000111111000000000000" cont="0"/>
        <request index="6"  response="000000000000000000000000111111000000000000000000000000000000" foes="111111000000111111000001111111111111000011111111000000000000" cont="0"/>
        <request index="7"  response="000000000000000000000000111111000000000000000000000000000000" foes="111111000000111111000000111111111111000011111111000000000000" cont="0"/>
        <request index="8"  response="000000000000000000000000111100000000000000000000000000000000" foes="111100000000111100000000111100000000111111111111000000000000" cont="0"/>
        <request index="9"  response="000000000000000000000000111100000000000000000000000000000000" foes="111100000000111100000000111100000000111111111111000000000000" cont="0"/>
        <request index="10" response="000000000000000000000000110000000000000000000000000000000000" foes="110000000000110000000000110000000000110000000000000000000000" cont="0"/>
        <request index="11" response="000000000000000000000000110000000000000000000000000000000000" foes="110000000000110000000000110000000000110000000000000000000000" cont="0"/>
        <request index="12" response="000000000000000000000011110000000011000000000000001111111111" foes="110000000011110000000011110000000011110000000000001111111111" cont="0"/>
        <request index="13" response="000000000000000000000011110000000011000000000000001111111111" foes="110000000011110000000011110000000011110000000000001111111111" cont="0"/>
        <request index="14" response="000011000000000000001111110000000000000000000000001111111100" foes="001111111111110000001111110000001111110000000000001111111100" cont="0"/>
        <request index="15" response="000011000000000000001111110000000000000000000000001111111100" foes="001111111111110000001111110000001111110000000000001111111100" cont="0"/>
        <request index="16" response="001111110000001111111111110000000011000000000000001111110000" foes="001111110000011111111111110000111111110000000000001111110000" cont="0"/>
        <request index="17" response="001111110000001111111111110000000011000000000000001111110000" foes="001111110000001111111111110000111111110000000000001111110000" cont="0"/>
        <request index="18" response="001111000000001111000000001111000011000000000000001111000000" foes="001111000000001111000000001111111111110000000000001111000000" cont="0"/>
        <request index="19" response="001111000000001111000000001111000011000000000000001111000000" foes="001111000000001111000000001111111111110000000000001111000000" cont="0"/>
        <request index="20" response="000000000000001100000000001100000000000000000000001100000000" foes="001100000000001100000000001100000000000000000000001100000000" cont="0"/>
        <request index="21" response="000000000000001100000000001100000000000000000000001100000000" foes="001100000000001100000000001100000000000000000000001100000000" cont="0"/>
        <request index="22" response="000000000000001100000000111100000000000011111111111100000000" foes="111100000000111100000000111100000000000011111111111100000000" cont="0"/>
        <request index="23" response="000000000000001100000000111100000000000011111111111100000000" foes="111100000000111100000000111100000000000011111111111100000000" cont="0"/>
        <request index="24" response="000000000000000000000011111100000000000000001100000011111111" foes="111100000011111100000011111100000000000011111111000011111111" cont="0"/>
        <request index="25" response="000000000000000000000011111100000000000000001100000011111111" foes="111100000011111100000011111100000000000011111111000011111111" cont="0"/>
        <request index="26" response="000011111100001100001111111100000000000011111100000011111100" foes="000011111111111100001111111100000000000011111100000011111100" cont="0"/>
        <request index="27" response="000011111100001100001111111100000000000011111100000011111100" foes="000011111111111100001111111100000000000011111100000011111100" cont="0"/>
        <request index="28" response="000011110000000011111111111100000000000011110000000011110000" foes="000011110000000011111111111100000000000011110000000011110000" cont="0"/>
        <request index="29" response="000011110000000011111111111100000000000011110000000011110000" foes="000011110000000011111111111100000000000011110000000011110000" cont="0"/>
        <request index="30" response="000000000000000000000000000000000000000000000000000000000000" foes="000011000000000011000000000000000000000011000000000011000000" cont="0"/>
        <request index="31" response="000000000000000000000000000000000000000000000000000000000000" foes="000011000000000011000000000000000000000011000000000011000000" cont="0"/>
        <request index="32" response="000000000000000000000000000000000000000000000000000000000000" foes="001111000000001111000000000000111111111111000000001111000000" cont="0"/>
        <request index="33" response="000000000000000000000000000000000000000000000000000000000000" foes="001111000000001111000000000000111111111111000000001111000000" cont="0"/>
        <request index="34" response="000000000000000000000000000000000000000000000000000000000000" foes="111111000000111111000000000000111111110000111111111111000000" cont="0"/>
        <request index="35" response="000000000000000000000000000000000000000000000000000000000000" foes="111111000000111111000000000000111111110000111111111111000000" cont="0"/>
        <request index="36" response="000000000000000000000000000000000000000000000000000001111111" foes="111111000011111111000000000000111111000000111111000001111111" cont="0"/>
        <request index="37" response="000000000000000000000000000000000000000000000000000000111111" foes="111111000011111111000000000000111111000000111111000000111111" cont="0"/>
        <request index="38" response="000000000000000000000000000000000000000000000000000000111100" foes="000000111111111111000000000000111100000000111100000000111100" cont="0"/>
        <request index="39" response="000000000000000000000000000000000000000000000000000000111100" foes="000000111111111111000000000000111100000000111100000000111100" cont="0"/>
        <request index="40" response="000000000000000000000000000000000000000000000000000000110000" foes="000000110000000000000000000000110000000000110000000000110000" cont="0"/>
        <request index="41" response="000000000000000000000000000000000000000000000000000000110000" foes="000000110000000000000000000000110000000000110000000000110000" cont="0"/>
        <request index="42" response="000011000000000000001111111111000000000000000000000011110000" foes="000011110000000000001111111111110000000011110000000011110000" cont="0"/>
        <request index="43" response="000011000000000000001111111111000000000000000000000011110000" foes="000011110000000000001111111111110000000011110000000011110000" cont="0"/>
        <request index="44" response="000000000000000000001111111100000011000000000000001111110000" foes="001111110000000000001111111100001111111111110000001111110000" cont="0"/>
        <request index="45" response="000000000000000000001111111100000011000000000000001111110000" foes="001111110000000000001111111100001111111111110000001111110000" cont="0"/>
        <request index="46" response="000011000000000000001111110000001111110000011111111111110000" foes="111111110000000000001111110000001111110000011111111111110000" cont="0"/>
        <request index="47" response="000011000000000000001111110000001111110000001111111111110000" foes="111111110000000000001111110000001111110000001111111111110000" cont="0"/>
        <request index="48" response="000011000000000000001111000000001111000000001111000000001111" foes="111111110000000000001111000000001111000000001111000000001111" cont="0"/>
        <request index="49" response="000011000000000000001111000000001111000000001111000000001111" foes="111111110000000000001111000000001111000000001111000000001111" cont="0"/>
        <request index="50" response="000000000000000000001100000000000000000000001100000000001100" foes="000000000000000000001100000000001100000000001100000000001100" cont="0"/>
        <request index="51" response="000000000000000000001100000000000000000000001100000000001100" foes="000000000000000000001100000000001100000000001100000000001100" cont="0"/>
        <request index="52" response="000000000011111111111100000000000000000000001100000000111100" foes="000000000011111111111100000000111100000000111100000000111100" cont="0"/>
        <request index="53" response="000000000011111111111100000000000000000000001100000000111100" foes="000000000011111111111100000000111100000000111100000000111100" cont="0"/>
        <request index="54" response="000000000000001100000011111111000000000000000000000011111100" foes="000000000011111111000011111111111100000011111100000011111100" cont="0"/>
        <request index="55" response="000000000000001100000011111111000000000000000000000011111100" foes="000000000011111111000011111111111100000011111100000011111100" cont="0"/>
        <request index="56" response="000000000011111100000011111100000011111100001100001111111100" foes="000000000011111100000011111100000011111111111100001111111100" cont="0"/>
        <request index="57" response="000000000011111100000011111100000011111100001100001111111100" foes="000000000011111100000011111100000011111111111100001111111100" cont="0"/>
        <request index="58" response="000000000011110000000011110000000011110000000011111111111100" foes="000000000011110000000011110000000011110000000011111111111100" cont="0"/>
        <request index="59" response="000000000011110000000011110000000011110000000011111111111100" foes="000000000011110000000011110000000011110000000011111111111100" cont="0"/>
    </junction>

    <connection from="n0_ts" to="ts_ne0" fromLane="0" toLane="0" via=":ts_30_0" tl="tl" linkIndex="30" dir="l" state="O"/>
    <connection from="n0_ts" to="ts_ne0" fromLane="0" toLane="1" via=":ts_30_1" tl="tl" linkIndex="31" dir="l" state="O"/>
    <connection from="n0_ts" to="ts_se0" fromLane="0" toLane="0" via=":ts_32_0" tl="tl" linkIndex="32" dir="L" state="O"/>