<?xml version="1.0" encoding="UTF-8"?>

<!-- generated on 2024-10-31 13:52:57.592364 by randomTrips.py UNKNOWN
<configuration>
    <net-file value="/Users/chashu/2024-11-01-10-25-19/osm.net.xml.gz"/>
    <output-trip-file value="./data/rou/output.rou.xml"/>
    <route-file value="100"/>
    <period value="10.0"/>
</configuration>
-->

<routes>
    <vType id="car_60kmh" maxSpeed="70" />

    <route id = "route_nenw" edges = "ne0_ts ts_nw0"/>
    <route id = "route_nes" edges = "ne0_ts ts_s0"/>
    <route id = "route_nws" edges = "nw0_ts ts_s0"/>
    <route id = "route_nwne" edges = "nw0_ts ts_ne0"/>
    <route id = "route_sne" edges = "s0_ts ts_ne0"/>
    <route id = "route_snw" edges = "s0_ts ts_nw0"/>

    <!-- 一車線あたり主道路800台・従道路400台、主道路70% -->
    <flow id = "flow_nenw" route = "route_nenw" begin = "0" end = "1000000" vehsPerHour = "240" deaprtSpeed = "max" departLane = "best" type = "car_60kmh"/>
    <flow id = "flow_nes" route = "route_nes" begin = "0" end = "1000000" vehsPerHour = "560" deaprtSpeed = "max" departLane = "best" type = "car_60kmh"/>
    <flow id = "flow_nws" route = "route_nws" begin = "0" end = "1000000" vehsPerHour = "200" deaprtSpeed = "max" departLane = "best" type = "car_60kmh"/>
    <flow id = "flow_nwne" route = "route_nwne" begin = "0" end = "1000000" vehsPerHour = "200" deaprtSpeed = "max" departLane = "best" type = "car_60kmh"/>
    <flow id = "flow_sne" route = "route_sne" begin = "0" end = "1000000" vehsPerHour = "560" deaprtSpeed = "max" departLane = "best" type = "car_60kmh"/>
    <flow id = "flow_snw" route = "route_snw" begin = "0" end = "1000000" vehsPerHour = "240" deaprtSpeed = "max" departLane = "best" type = "car_60kmh"/>
    
</routes>