<?xml version="1.0" encoding="UTF-8"?>

<!-- generated on 2024-11-18 15:00:18 by Eclipse SUMO netedit Version 1.20.0
<configuration xmlns:xsi="http://www.w3.org/2001/XMLSchema-instance" xsi:noNamespaceSchemaLocation="http://sumo.dlr.de/xsd/neteditConfiguration.xsd">

    <input>
        <sumo-net-file value="/Users/chashu/Desktop/dev/sumorl-venv/app/data/nets/3d_intersection/nets/2way.net.xml"/>
    </input>

    <output>
        <output-file value="/Users/chashu/Desktop/dev/sumorl-venv/app/data/nets/3d_intersection/nets/2way.net.xml"/>
    </output>

    <processing>
        <offset.disable-normalization value="true"/>
        <lefthand value="true"/>
    </processing>

    <junctions>
        <no-turnarounds value="true"/>
    </junctions>

    <netedit>
        <new-network value="false"/>
    </netedit>

</configuration>
-->

<net version="1.20" junctionCornerDetail="5" lefthand="true" limitTurnSpeed="5.50" xmlns:xsi="http://www.w3.org/2001/XMLSchema-instance" xsi:noNamespaceSchemaLocation="http://sumo.dlr.de/xsd/net_file.xsd">

    <location netOffset="0.00,-0.00" convBoundary="-400.62,88.18,199.62,718.22" origBoundary="10000000000.00,10000000000.00,-10000000000.00,-10000000000.00" projParameter="!"/>

    <edge id=":n0_0" function="internal">
        <lane id=":n0_0_0" index="0" speed="13.89" length="9.72" shape="-94.82,607.54 -94.83,604.65 -94.77,602.67 -94.54,600.71 -94.03,597.87"/>
    </edge>
    <edge id=":n0_1" function="internal">
        <lane id=":n0_1_0" index="0" speed="13.89" length="9.53" shape="-98.02,607.54 -98.06,598.01"/>
    </edge>
    <edge id=":n0_2" function="internal">
        <lane id=":n0_2_0" index="0" speed="13.89" length="9.30" shape="-105.49,598.33 -104.92,601.03 -104.59,602.89 -104.45,604.78 -104.42,607.54"/>
    </edge>
    <edge id=":n0_3" function="internal">
        <lane id=":n0_3_0" index="0" speed="13.89" length="9.38" shape="-101.52,598.16 -101.22,607.54"/>
    </edge>
    <edge id=":s0_0" function="internal">
        <lane id=":s0_0_0" index="0" speed="13.89" length="10.12" shape="-104.77,194.27 -104.80,197.27 -104.96,199.33 -105.38,201.35 -106.17,204.23"/>
    </edge>
    <edge id=":s0_1" function="internal">
        <lane id=":s0_1_0" index="0" speed="13.89" length="10.03" shape="-101.57,194.27 -101.60,204.30"/>
    </edge>
    <edge id=":s0_2" function="internal">
        <lane id=":s0_2_0" index="0" speed="13.89" length="10.40" shape="-93.37,204.44 -94.26,201.56 -94.81,199.50 -95.09,197.37 -95.17,194.27"/>
    </edge>
    <edge id=":s0_3" function="internal">
        <lane id=":s0_3_0" index="0" speed="13.89" length="10.09" shape="-98.37,204.36 -98.37,194.27"/>
    </edge>
    <edge id=":ts_0" function="internal">
        <lane id=":ts_0_0" index="0" speed="6.51" length="9.04" shape="-106.58,389.05 -106.93,391.50 -107.98,393.26 -109.73,394.31 -112.18,394.66"/>
    </edge>
    <edge id=":ts_1" function="internal">
        <lane id=":ts_1_0" index="0" speed="13.89" length="20.81" shape="-106.58,389.05 -106.58,409.86"/>
    </edge>
    <edge id=":ts_2" function="internal">
        <lane id=":ts_2_0" index="0" speed="10.26" length="16.65" shape="-106.58,389.05 -104.65,393.46 -99.83,397.30 -94.63,399.57"/>
    </edge>
    <edge id=":ts_14" function="internal">
        <lane id=":ts_14_0" index="0" speed="10.26" length="7.38" shape="-94.63,399.57 -93.60,400.02 -87.43,401.05"/>
    </edge>
    <edge id=":ts_3" function="internal">
        <lane id=":ts_3_0" index="0" speed="6.51" length="9.03" shape="-87.43,394.65 -89.88,394.30 -91.63,393.25 -92.68,391.50 -93.03,389.05"/>
    </edge>
    <edge id=":ts_4" function="internal">
        <lane id=":ts_4_0" index="0" speed="13.89" length="24.75" shape="-87.43,394.65 -112.18,394.66"/>
        <lane id=":ts_4_1" index="1" speed="13.89" length="24.75" shape="-87.43,397.85 -112.18,397.86"/>
    </edge>
    <edge id=":ts_6" function="internal">
        <lane id=":ts_6_0" index="0" speed="10.27" length="7.68" shape="-87.43,397.85 -93.60,398.88 -94.91,399.45"/>
    </edge>
    <edge id=":ts_15" function="internal">
        <lane id=":ts_15_0" index="0" speed="10.27" length="16.35" shape="-94.91,399.45 -99.83,401.60 -104.65,405.45 -106.58,409.86"/>
    </edge>
    <edge id=":ts_7" function="internal">
        <lane id=":ts_7_0" index="0" speed="6.51" length="9.04" shape="-93.03,409.86 -92.68,407.41 -91.63,405.65 -89.88,404.60 -87.43,404.25"/>
    </edge>
    <edge id=":ts_8" function="internal">
        <lane id=":ts_8_0" index="0" speed="13.89" length="20.81" shape="-93.03,409.86 -93.03,389.05"/>
    </edge>
    <edge id=":ts_9" function="internal">
        <lane id=":ts_9_0" index="0" speed="10.26" length="16.65" shape="-93.03,409.86 -94.96,405.45 -99.78,401.61 -104.98,399.34"/>
    </edge>
    <edge id=":ts_16" function="internal">
        <lane id=":ts_16_0" index="0" speed="10.26" length="7.38" shape="-104.98,399.34 -106.01,398.89 -112.18,397.86"/>
    </edge>
    <edge id=":ts_10" function="internal">
        <lane id=":ts_10_0" index="0" speed="6.51" length="9.03" shape="-112.18,404.26 -109.73,404.61 -107.98,405.66 -106.93,407.41 -106.58,409.86"/>
    </edge>
    <edge id=":ts_11" function="internal">
        <lane id=":ts_11_0" index="0" speed="13.89" length="24.75" shape="-112.18,404.26 -87.43,404.25"/>
        <lane id=":ts_11_1" index="1" speed="13.89" length="24.75" shape="-112.18,401.06 -87.43,401.05"/>
    </edge>
    <edge id=":ts_13" function="internal">
        <lane id=":ts_13_0" index="0" speed="10.27" length="7.68" shape="-112.18,401.06 -106.01,400.03 -104.70,399.46"/>
    </edge>
    <edge id=":ts_17" function="internal">
        <lane id=":ts_17_0" index="0" speed="10.27" length="16.35" shape="-104.70,399.46 -99.78,397.31 -94.96,393.46 -93.03,389.05"/>
    </edge>

    <edge id="e0_ts" from="e0" to="ts" priority="-1" shape="199.62,399.45 -100.38,399.45">
        <lane id="e0_ts_0" index="0" speed="13.89" length="287.05" shape="199.62,394.65 -87.43,394.65"/>
        <lane id="e0_ts_1" index="1" speed="13.89" length="287.05" shape="199.62,397.85 -87.43,397.85"/>
    </edge>
    <edge id="n0_n1" from="n0" to="n1" priority="-1">
        <lane id="n0_n1_0" index="0" speed="13.89" length="110.68" shape="-104.42,607.54 -104.42,718.22"/>
        <lane id="n0_n1_1" index="1" speed="13.89" length="110.68" shape="-101.22,607.54 -101.22,718.22"/>
    </edge>
    <edge id="n0_s0" from="n0" to="s0" priority="-1" shape="-99.62,618.22 -100.00,400.00,-10.00 -99.97,188.18">
        <lane id="n0_s0_0" index="0" speed="13.89" length="394.16" shape="-98.06,598.01 -98.40,400.00,-10.00 -98.37,204.36"/>
    </edge>
    <edge id="n0_ts" from="n0" to="ts" priority="-1" shape="-99.62,618.22 -94.63,592.61 -94.63,399.94">
        <lane id="n0_ts_0" index="0" speed="13.89" length="188.11" shape="-94.03,597.87 -93.03,592.76 -93.03,409.86"/>
    </edge>
    <edge id="n1_n0" from="n1" to="n0" priority="-1">
        <lane id="n1_n0_0" index="0" speed="13.89" length="110.68" shape="-94.82,718.22 -94.82,607.54"/>
        <lane id="n1_n0_1" index="1" speed="13.89" length="110.68" shape="-98.02,718.22 -98.02,607.54"/>
    </edge>
    <edge id="s0_n0" from="s0" to="n0" priority="-1" shape="-99.97,188.18 -100.00,205.81,-0.26 -100.00,218.01,-2.81 -100.00,244.60,-6.00 -100.00,400.00,-10.00 -100.00,557.23,-5.93 -100.00,581.15,-3.09 -100.00,588.95,-1.66 -100.00,593.06,-0.91 -99.62,618.22">
        <lane id="s0_n0_0" index="0" speed="13.89" length="394.88" shape="-101.60,204.30 -101.60,205.81,-0.26 -101.60,218.01,-2.81 -101.60,244.60,-6.00 -101.60,400.00,-10.00 -101.60,557.23,-5.93 -101.60,581.15,-3.09 -101.60,588.95,-1.66 -101.60,593.07,-0.91 -101.52,598.16"/>
    </edge>
    <edge id="s0_s1" from="s0" to="s1" priority="-1">
        <lane id="s0_s1_0" index="0" speed="13.89" length="106.09" shape="-95.17,194.27 -95.17,88.18"/>
        <lane id="s0_s1_1" index="1" speed="13.89" length="106.09" shape="-98.37,194.27 -98.37,88.18"/>
    </edge>
    <edge id="s0_ts" from="s0" to="ts" priority="-1" shape="-99.97,188.18 -104.98,205.89 -104.98,399.90">
        <lane id="s0_ts_0" index="0" speed="13.89" length="184.88" shape="-106.17,204.23 -106.58,205.67 -106.58,389.05"/>
    </edge>
    <edge id="s1_s0" from="s1" to="s0" priority="-1">
        <lane id="s1_s0_0" index="0" speed="13.89" length="106.09" shape="-104.77,88.18 -104.77,194.27"/>
        <lane id="s1_s0_1" index="1" speed="13.89" length="106.09" shape="-101.57,88.18 -101.57,194.27"/>
    </edge>
    <edge id="ts_e0" from="ts" to="e0" priority="-1" shape="-100.38,399.45 199.62,399.45">
        <lane id="ts_e0_0" index="0" speed="13.89" length="287.05" shape="-87.43,404.25 199.62,404.25"/>
        <lane id="ts_e0_1" index="1" speed="13.89" length="287.05" shape="-87.43,401.05 199.62,401.05"/>
    </edge>
    <edge id="ts_n0" from="ts" to="n0" priority="-1" shape="-104.98,399.90 -104.98,593.06 -99.62,618.22">
        <lane id="ts_n0_0" index="0" speed="13.89" length="188.58" shape="-106.58,409.86 -106.58,593.23 -105.49,598.33"/>
    </edge>
    <edge id="ts_s0" from="ts" to="s0" priority="-1" shape="-94.63,399.94 -94.63,205.81 -99.97,188.18">
        <lane id="ts_s0_0" index="0" speed="13.89" length="184.66" shape="-93.03,389.05 -93.03,205.57 -93.37,204.44"/>
    </edge>
    <edge id="ts_w0" from="ts" to="w0" priority="-1" shape="-100.62,399.46 -400.62,399.46">
        <lane id="ts_w0_0" index="0" speed="13.89" length="288.44" shape="-112.18,394.66 -400.62,394.66"/>
        <lane id="ts_w0_1" index="1" speed="13.89" length="288.44" shape="-112.18,397.86 -400.62,397.86"/>
    </edge>
    <edge id="w0_ts" from="w0" to="ts" priority="-1" shape="-400.62,399.46 -100.62,399.46">
        <lane id="w0_ts_0" index="0" speed="13.89" length="288.44" shape="-400.62,404.26 -112.18,404.26"/>
        <lane id="w0_ts_1" index="1" speed="13.89" length="288.44" shape="-400.62,401.06 -112.18,401.06"/>
    </edge>

    <tlLogic id="tl" type="static" programID="0" offset="0">
        <phase duration="42" state="rrrGGGgrrrGGGg"/>
        <phase duration="3"  state="rrryyyyrrryyyy"/>
        <phase duration="42" state="GGgrrrrGGgrrrr"/>
        <phase duration="3"  state="yyyrrrryyyrrrr"/>
    </tlLogic>

    <junction id="e0" type="dead_end" x="199.62" y="399.45" incLanes="ts_e0_0 ts_e0_1" intLanes="" shape="199.62,399.45 199.62,405.85 199.62,399.45"/>
    <junction id="n0" type="priority" x="-99.62" y="618.22" incLanes="n1_n0_0 n1_n0_1 ts_n0_0 s0_n0_0" intLanes=":n0_0_0 :n0_1_0 :n0_2_0 :n0_3_0" shape="-95.60,597.57 -92.46,598.18 -92.82,600.15 -93.05,601.61 -93.17,602.83 -93.22,604.05 -93.23,605.53 -93.22,607.54 -106.02,607.54 -106.09,604.12 -106.21,602.93 -106.40,601.75 -106.70,600.32 -107.11,598.40 -96.46,597.94">
        <request index="0" response="0000" foes="0000" cont="0"/>
        <request index="1" response="0000" foes="0000" cont="0"/>
        <request index="2" response="0000" foes="0000" cont="0"/>
        <request index="3" response="0000" foes="0000" cont="0"/>
    </junction>
    <junction id="n1" type="dead_end" x="-99.62" y="718.22" incLanes="n0_n1_0 n0_n1_1" intLanes="" shape="-99.62,718.22 -106.02,718.22 -99.62,718.22"/>
    <junction id="s0" type="priority" x="-99.97" y="188.18" incLanes="s1_s0_0 s1_s0_1 ts_s0_0 n0_s0_0" intLanes=":s0_0_0 :s0_1_0 :s0_2_0 :s0_3_0" shape="-106.37,194.27 -93.57,194.27 -93.52,199.60 -91.69,204.47 -107.89,204.20 -106.65,199.77 -106.37,196.13" customShape="1">
        <request index="0" response="0000" foes="0000" cont="0"/>
        <request index="1" response="0000" foes="0000" cont="0"/>
        <request index="2" response="0000" foes="0000" cont="0"/>
        <request index="3" response="0000" foes="0000" cont="0"/>
    </junction>
    <junction id="s1" type="dead_end" x="-99.97" y="88.18" incLanes="s0_s1_0 s0_s1_1" intLanes="" shape="-99.97,88.18 -93.57,88.18 -99.97,88.18"/>
    <junction id="ts" type="traffic_light" x="-100.15" y="399.69" incLanes="s0_ts_0 e0_ts_0 e0_ts_1 n0_ts_0 w0_ts_0 w0_ts_1" intLanes=":ts_0_0 :ts_1_0 :ts_14_0 :ts_3_0 :ts_4_0 :ts_4_1 :ts_15_0 :ts_7_0 :ts_8_0 :ts_16_0 :ts_10_0 :ts_11_0 :ts_11_1 :ts_17_0" shape="-108.18,389.05 -91.43,389.05 -90.99,391.27 -90.43,392.05 -89.65,392.61 -88.65,392.94 -87.43,393.05 -87.43,405.85 -89.65,406.30 -90.43,406.85 -90.99,407.63 -91.32,408.63 -91.43,409.86 -108.18,409.86 -108.62,407.64 -109.18,406.86 -109.96,406.30 -110.96,405.97 -112.18,405.86 -112.18,393.06 -109.96,392.61 -109.18,392.06 -108.62,391.28 -108.29,390.28">
        <request index="0"  response="00000000110000" foes="00000000110000" cont="0"/>
        <request index="1"  response="11110001110000" foes="11111001110000" cont="0"/>
        <request index="2"  response="11100101110000" foes="11100101110000" cont="1"/>
        <request index="3"  response="00000000000000" foes="10000100000000" cont="0"/>
        <request index="4"  response="00001000000100" foes="10001100000111" cont="0"/>
        <request index="5"  response="00001000000100" foes="10001100000111" cont="0"/>
        <request index="6"  response="01111000000100" foes="01111100000110" cont="1"/>
        <request index="7"  response="01100000000000" foes="01100000000000" cont="0"/>
        <request index="8"  response="11100001111000" foes="11100001111100" cont="0"/>
        <request index="9"  response="11100001110010" foes="11100001110010" cont="1"/>
        <request index="10" response="00000000000000" foes="00000001000010" cont="0"/>
        <request index="11" response="00001000000100" foes="00001111000110" cont="0"/>
        <request index="12" response="00001000000100" foes="00001111000110" cont="0"/>
        <request index="13" response="00001000111100" foes="00001100111110" cont="1"/>
    </junction>
    <junction id="w0" type="dead_end" x="-400.62" y="399.46" incLanes="ts_w0_0 ts_w0_1" intLanes="" shape="-400.62,399.46 -400.62,393.06 -400.62,399.46"/>

    <junction id=":ts_14_0" type="internal" x="-94.63" y="399.57" incLanes=":ts_2_0 n0_ts_0" intLanes=":ts_4_0 :ts_4_1 :ts_6_0 :ts_7_0 :ts_8_0 :ts_11_0 :ts_11_1 :ts_13_0"/>
    <junction id=":ts_15_0" type="internal" x="-94.91" y="399.45" incLanes=":ts_6_0 w0_ts_0 w0_ts_1" intLanes=":ts_1_0 :ts_2_0 :ts_8_0 :ts_9_0 :ts_10_0 :ts_11_0 :ts_11_1"/>
    <junction id=":ts_16_0" type="internal" x="-104.98" y="399.34" incLanes=":ts_9_0 s0_ts_0" intLanes=":ts_0_0 :ts_1_0 :ts_4_0 :ts_4_1 :ts_6_0 :ts_11_0 :ts_11_1 :ts_13_0"/>
    <junction id=":ts_17_0" type="internal" x="-104.70" y="399.46" incLanes=":ts_13_0 e0_ts_0 e0_ts_1" intLanes=":ts_1_0 :ts_2_0 :ts_3_0 :ts_4_0 :ts_4_1 :ts_8_0 :ts_9_0"/>

    <connection from="e0_ts" to="ts_s0" fromLane="0" toLane="0" via=":ts_3_0" tl="tl" linkIndex="3" dir="l" state="O"/>
    <connection from="e0_ts" to="ts_w0" fromLane="0" toLane="0" via=":ts_4_0" tl="tl" linkIndex="4" dir="s" state="O"/>
    <connection from="e0_ts" to="ts_w0" fromLane="1" toLane="1" via=":ts_4_1" tl="tl" linkIndex="5" dir="s" state="O"/>
    <connection from="e0_ts" to="ts_n0" fromLane="1" toLane="0" via=":ts_6_0" tl="tl" linkIndex="6" dir="r" state="o"/>
    <connection from="n0_s0" to="s0_s1" fromLane="0" toLane="1" via=":s0_3_0" dir="s" state="M"/>
    <connection from="n0_ts" to="ts_e0" fromLane="0" toLane="0" via=":ts_7_0" tl="tl" linkIndex="7" dir="l" state="o"/>
    <connection from="n0_ts" to="ts_s0" fromLane="0" toLane="0" via=":ts_8_0" tl="tl" linkIndex="8" dir="s" state="o"/>
    <connection from="n0_ts" to="ts_w0" fromLane="0" toLane="1" via=":ts_9_0" tl="tl" linkIndex="9" dir="r" state="o"/>
    <connection from="n1_n0" to="n0_ts" fromLane="0" toLane="0" via=":n0_0_0" dir="L" state="M"/>
    <connection from="n1_n0" to="n0_s0" fromLane="1" toLane="0" via=":n0_1_0" dir="s" state="M"/>
    <connection from="s0_n0" to="n0_n1" fromLane="0" toLane="1" via=":n0_3_0" dir="s" state="M"/>
    <connection from="s0_ts" to="ts_w0" fromLane="0" toLane="0" via=":ts_0_0" tl="tl" linkIndex="0" dir="l" state="o"/>
    <connection from="s0_ts" to="ts_n0" fromLane="0" toLane="0" via=":ts_1_0" tl="tl" linkIndex="1" dir="s" state="o"/>
    <connection from="s0_ts" to="ts_e0" fromLane="0" toLane="1" via=":ts_2_0" tl="tl" linkIndex="2" dir="r" state="o"/>
    <connection from="s1_s0" to="s0_ts" fromLane="0" toLane="0" via=":s0_0_0" dir="L" state="M"/>
    <connection from="s1_s0" to="s0_n0" fromLane="1" toLane="0" via=":s0_1_0" dir="s" state="M"/>
    <connection from="ts_n0" to="n0_n1" fromLane="0" toLane="0" via=":n0_2_0" dir="s" state="M"/>
    <connection from="ts_s0" to="s0_s1" fromLane="0" toLane="0" via=":s0_2_0" dir="s" state="M"/>
    <connection from="w0_ts" to="ts_n0" fromLane="0" toLane="0" via=":ts_10_0" tl="tl" linkIndex="10" dir="l" state="O"/>
    <connection from="w0_ts" to="ts_e0" fromLane="0" toLane="0" via=":ts_11_0" tl="tl" linkIndex="11" dir="s" state="O"/>
    <connection from="w0_ts" to="ts_e0" fromLane="1" toLane="1" via=":ts_11_1" tl="tl" linkIndex="12" dir="s" state="O"/>
    <connection from="w0_ts" to="ts_s0" fromLane="1" toLane="0" via=":ts_13_0" tl="tl" linkIndex="13" dir="r" state="o"/>

    <connection from=":n0_0" to="n0_ts" fromLane="0" toLane="0" dir="L" state="M"/>
    <connection from=":n0_1" to="n0_s0" fromLane="0" toLane="0" dir="s" state="M"/>
    <connection from=":n0_2" to="n0_n1" fromLane="0" toLane="0" dir="s" state="M"/>
    <connection from=":n0_3" to="n0_n1" fromLane="0" toLane="1" dir="s" state="M"/>
    <connection from=":s0_0" to="s0_ts" fromLane="0" toLane="0" dir="L" state="M"/>
    <connection from=":s0_1" to="s0_n0" fromLane="0" toLane="0" dir="s" state="M"/>
    <connection from=":s0_2" to="s0_s1" fromLane="0" toLane="0" dir="s" state="M"/>
    <connection from=":s0_3" to="s0_s1" fromLane="0" toLane="1" dir="s" state="M"/>
    <connection from=":ts_0" to="ts_w0" fromLane="0" toLane="0" dir="l" state="M"/>
    <connection from=":ts_1" to="ts_n0" fromLane="0" toLane="0" dir="s" state="M"/>
    <connection from=":ts_2" to="ts_e0" fromLane="0" toLane="1" via=":ts_14_0" dir="r" state="m"/>
    <connection from=":ts_14" to="ts_e0" fromLane="0" toLane="1" dir="r" state="M"/>
    <connection from=":ts_3" to="ts_s0" fromLane="0" toLane="0" dir="l" state="M"/>
    <connection from=":ts_4" to="ts_w0" fromLane="0" toLane="0" dir="s" state="M"/>
    <connection from=":ts_4" to="ts_w0" fromLane="1" toLane="1" dir="s" state="M"/>
    <connection from=":ts_6" to="ts_n0" fromLane="0" toLane="0" via=":ts_15_0" dir="r" state="m"/>
    <connection from=":ts_15" to="ts_n0" fromLane="0" toLane="0" dir="r" state="M"/>
    <connection from=":ts_7" to="ts_e0" fromLane="0" toLane="0" dir="l" state="M"/>
    <connection from=":ts_8" to="ts_s0" fromLane="0" toLane="0" dir="s" state="M"/>
    <connection from=":ts_9" to="ts_w0" fromLane="0" toLane="1" via=":ts_16_0" dir="r" state="m"/>
    <connection from=":ts_16" to="ts_w0" fromLane="0" toLane="1" dir="r" state="M"/>
    <connection from=":ts_10" to="ts_n0" fromLane="0" toLane="0" dir="l" state="M"/>
    <connection from=":ts_11" to="ts_e0" fromLane="0" toLane="0" dir="s" state="M"/>
    <connection from=":ts_11" to="ts_e0" fromLane="1" toLane="1" dir="s" state="M"/>
    <connection from=":ts_13" to="ts_s0" fromLane="0" toLane="0" via=":ts_17_0" dir="r" state="m"/>
    <connection from=":ts_17" to="ts_s0" fromLane="0" toLane="0" dir="r" state="M"/>

</net>
