<?xml version="1.0" encoding="UTF-8"?>

<!-- generated on 2024-11-14 16:12:01 by Eclipse SUMO netedit Version 1.20.0
<configuration xmlns:xsi="http://www.w3.org/2001/XMLSchema-instance" xsi:noNamespaceSchemaLocation="http://sumo.dlr.de/xsd/neteditConfiguration.xsd">

    <input>
        <sumo-net-file value="/Users/chashu/Desktop/dev/sumorl-venv/app/data/nets/tanimachikyuchome.net.xml"/>
    </input>

    <output>
        <output-file value="/Users/chashu/Desktop/dev/sumorl-venv/app/data/nets/tanimachikyuchome.net.xml"/>
        <output.street-names value="true"/>
    </output>

    <processing>
        <geometry.min-radius.fix.railways value="false"/>
        <geometry.max-grade.fix value="false"/>
        <offset.disable-normalization value="true"/>
        <lefthand value="1"/>
    </processing>

    <junctions>
        <no-turnarounds value="true"/>
        <junctions.corner-detail value="5"/>
        <junctions.limit-turn-speed value="5.50"/>
        <rectangular-lane-cut value="0"/>
    </junctions>

    <pedestrian>
        <walkingareas value="0"/>
    </pedestrian>

</configuration>
-->

<net version="1.20" junctionCornerDetail="5" lefthand="true" limitTurnSpeed="5.50" xmlns:xsi="http://www.w3.org/2001/XMLSchema-instance" xsi:noNamespaceSchemaLocation="http://sumo.dlr.de/xsd/net_file.xsd">

    <location netOffset="-547102.02,-3836070.84" convBoundary="30.00,-34.83,254.48,281.53" origBoundary="135.514099,34.665507,135.517248,34.667385" projParameter="+proj=utm +zone=53 +ellps=WGS84 +datum=WGS84 +units=m +no_defs"/>

    <type id="highway.primary" priority="12" numLanes="2" speed="27.78" disallow="tram rail_urban rail rail_electric rail_fast ship container cable_car subway aircraft wheelchair scooter drone" oneway="0"/>
    <type id="highway.primary_link" priority="7" numLanes="1" speed="22.22" disallow="tram rail_urban rail rail_electric rail_fast ship container cable_car subway aircraft wheelchair scooter drone" oneway="0"/>
    <type id="highway.secondary" priority="11" numLanes="1" speed="27.78" disallow="tram rail_urban rail rail_electric rail_fast ship container cable_car subway aircraft wheelchair scooter drone" oneway="0"/>

    <edge id=":n0_0" function="internal">
        <lane id=":n0_0_0" index="0" disallow="tram rail_urban rail rail_electric rail_fast ship container cable_car subway aircraft wheelchair scooter drone" speed="12.50" length="11.41" shape="182.00,203.04 181.14,199.78 180.04,197.70 178.91,195.61 178.00,192.37"/>
        <lane id=":n0_0_1" index="1" disallow="tram rail_urban rail rail_electric rail_fast ship container cable_car subway aircraft wheelchair scooter drone" speed="12.50" length="11.41" shape="178.84,203.54 177.98,200.30 176.88,198.22 175.76,196.15 174.85,192.92"/>
        <lane id=":n0_0_2" index="2" disallow="tram rail_urban rail rail_electric rail_fast ship container cable_car subway aircraft wheelchair scooter drone" speed="12.50" length="11.41" shape="175.68,204.04 174.82,200.82 173.72,198.75 172.61,196.68 171.70,193.47"/>
    </edge>
    <edge id=":n0_3" function="internal">
        <lane id=":n0_3_0" index="0" disallow="tram rail_urban rail rail_electric rail_fast ship container cable_car subway aircraft wheelchair scooter drone" speed="20.84" length="11.46" shape="172.52,204.54 171.57,201.33 170.26,199.33 168.94,197.33 167.95,194.12"/>
        <lane id=":n0_3_1" index="1" disallow="tram rail_urban rail rail_electric rail_fast ship container cable_car subway aircraft wheelchair scooter drone" speed="20.84" length="11.46" shape="169.36,205.04 168.41,201.85 167.10,199.85 165.79,197.86 164.80,194.67"/>
    </edge>
    <edge id=":n1_0" function="internal">
        <lane id=":n1_0_0" index="0" disallow="pedestrian tram rail_urban rail rail_electric rail_fast ship container cable_car subway aircraft wheelchair scooter drone" speed="20.84" length="11.64" shape="156.93,195.71 157.66,199.08 158.40,201.34 159.15,203.59 159.88,206.96"/>
        <lane id=":n1_0_1" index="1" disallow="pedestrian tram rail_urban rail rail_electric rail_fast ship container cable_car subway aircraft wheelchair scooter drone" speed="20.84" length="11.64" shape="160.09,195.19 160.82,198.56 161.56,200.81 162.30,203.06 163.03,206.43"/>
    </edge>
    <edge id=":n1_2" function="internal">
        <lane id=":n1_2_0" index="0" disallow="tram rail_urban rail rail_electric rail_fast ship container cable_car subway aircraft wheelchair scooter drone" speed="12.50" length="11.83" shape="149.32,197.05 150.25,200.39 151.44,202.53 152.63,204.67 153.56,208.01"/>
        <lane id=":n1_2_1" index="1" disallow="tram rail_urban rail rail_electric rail_fast ship container cable_car subway aircraft wheelchair scooter drone" speed="12.50" length="11.83" shape="152.48,196.53 153.41,199.87 154.59,202.01 155.78,204.15 156.72,207.49"/>
    </edge>
    <edge id=":s0_0" function="internal">
        <lane id=":s0_0_0" index="0" disallow="tram rail_urban rail rail_electric rail_fast ship container cable_car subway aircraft wheelchair scooter drone" speed="12.50" length="17.92" shape="113.72,9.38 117.60,26.85"/>
        <lane id=":s0_0_1" index="1" disallow="tram rail_urban rail rail_electric rail_fast ship container cable_car subway aircraft wheelchair scooter drone" speed="12.50" length="17.92" shape="116.87,8.80 120.75,26.29"/>
        <lane id=":s0_0_2" index="2" disallow="tram rail_urban rail rail_electric rail_fast ship container cable_car subway aircraft wheelchair scooter drone" speed="12.50" length="17.92" shape="120.01,8.22 123.90,25.73"/>
    </edge>
    <edge id=":s0_3" function="internal">
        <lane id=":s0_3_0" index="0" disallow="pedestrian tram rail_urban rail rail_electric rail_fast ship container cable_car subway aircraft wheelchair scooter drone" speed="20.84" length="18.12" shape="123.16,7.64 124.49,12.83 125.84,16.27 127.16,19.73 128.36,24.94"/>
        <lane id=":s0_3_1" index="1" disallow="pedestrian tram rail_urban rail rail_electric rail_fast ship container cable_car subway aircraft wheelchair scooter drone" speed="20.84" length="18.12" shape="126.31,7.06 127.63,12.26 128.99,15.70 130.31,19.16 131.51,24.38"/>
    </edge>
    <edge id=":s1_0" function="internal">
        <lane id=":s1_0_0" index="0" disallow="tram rail_urban rail rail_electric rail_fast ship container cable_car subway aircraft wheelchair scooter drone" speed="20.84" length="12.84" shape="137.32,14.15 136.11,1.36"/>
        <lane id=":s1_0_1" index="1" disallow="tram rail_urban rail rail_electric rail_fast ship container cable_car subway aircraft wheelchair scooter drone" speed="20.84" length="12.84" shape="134.16,14.69 132.96,1.91"/>
    </edge>
    <edge id=":s1_2" function="internal">
        <lane id=":s1_2_0" index="0" disallow="tram rail_urban rail rail_electric rail_fast ship container cable_car subway aircraft wheelchair scooter drone" speed="12.50" length="12.90" shape="145.68,12.73 144.92,8.99 144.10,6.49 143.26,4.00 142.42,0.27"/>
        <lane id=":s1_2_1" index="1" disallow="tram rail_urban rail rail_electric rail_fast ship container cable_car subway aircraft wheelchair scooter drone" speed="12.50" length="12.90" shape="142.53,13.26 141.77,9.53 140.95,7.03 140.10,4.54 139.26,0.81"/>
    </edge>
    <edge id=":ts_0" function="internal">
        <lane id=":ts_0_0" index="0" disallow="tram rail_urban rail rail_electric rail_fast ship container cable_car subway aircraft wheelchair scooter drone" speed="6.88" length="10.23" shape="168.23,107.28 165.13,107.50 162.78,106.86 161.16,105.38 160.29,103.05"/>
        <lane id=":ts_0_1" index="1" disallow="tram rail_urban rail rail_electric rail_fast ship container cable_car subway aircraft wheelchair scooter drone" speed="7.68" length="13.00" shape="168.23,107.28 163.76,107.75 160.42,107.29 158.21,105.92 157.14,103.62"/>
    </edge>
    <edge id=":ts_2" function="internal">
        <lane id=":ts_2_0" index="0" disallow="tram rail_urban rail rail_electric rail_fast ship container cable_car subway aircraft wheelchair scooter drone" speed="20.84" length="41.20" shape="168.82,110.43 128.47,118.91"/>
        <lane id=":ts_2_1" index="1" disallow="tram rail_urban rail rail_electric rail_fast ship container cable_car subway aircraft wheelchair scooter drone" speed="20.84" length="41.20" shape="169.41,113.57 129.14,122.04"/>
    </edge>
    <edge id=":ts_4" function="internal">
        <lane id=":ts_4_0" index="0" disallow="tram rail_urban rail rail_electric rail_fast ship container cable_car subway aircraft wheelchair scooter drone" speed="12.50" length="27.51" shape="170.01,116.72 161.60,121.82 151.78,132.12 149.86,134.98"/>
        <lane id=":ts_4_1" index="1" disallow="tram rail_urban rail rail_electric rail_fast ship container cable_car subway aircraft wheelchair scooter drone" speed="12.50" length="23.28" shape="170.60,119.86 162.59,124.37 153.64,133.35 152.85,134.52"/>
    </edge>
    <edge id=":ts_23" function="internal">
        <lane id=":ts_23_0" index="0" disallow="tram rail_urban rail rail_electric rail_fast ship container cable_car subway aircraft wheelchair scooter drone" speed="12.50" length="19.86" shape="149.86,134.98 143.99,143.73 141.66,152.76"/>
    </edge>
    <edge id=":ts_24" function="internal">
        <lane id=":ts_24_0" index="0" disallow="tram rail_urban rail rail_electric rail_fast ship container cable_car subway aircraft wheelchair scooter drone" speed="12.50" length="19.58" shape="152.85,134.52 146.71,143.63 144.77,152.01"/>
    </edge>
    <edge id=":ts_6" function="internal">
        <lane id=":ts_6_0" index="0" disallow="tram rail_urban rail rail_electric rail_fast ship container cable_car subway aircraft wheelchair scooter drone" speed="6.53" length="9.10" shape="169.81,145.97 169.70,143.47 170.40,141.53 171.93,140.16 174.27,139.35"/>
        <lane id=":ts_6_1" index="1" disallow="tram rail_urban rail rail_electric rail_fast ship container cable_car subway aircraft wheelchair scooter drone" speed="7.35" length="11.80" shape="169.81,145.97 169.44,142.09 169.96,139.17 171.37,137.21 173.68,136.21"/>
    </edge>
    <edge id=":ts_8" function="internal">
        <lane id=":ts_8_0" index="0" disallow="tram rail_urban rail rail_electric rail_fast ship container cable_car subway aircraft wheelchair scooter drone" speed="11.11" length="44.15" shape="166.70,146.72 157.14,103.62"/>
    </edge>
    <edge id=":ts_9" function="internal">
        <lane id=":ts_9_0" index="0" disallow="tram rail_urban rail rail_electric rail_fast ship container cable_car subway aircraft wheelchair scooter drone" speed="13.34" length="30.17" shape="163.58,147.47 158.84,140.04 149.34,132.34 141.27,128.08"/>
        <lane id=":ts_9_1" index="1" disallow="tram rail_urban rail rail_electric rail_fast ship container cable_car subway aircraft wheelchair scooter drone" speed="13.60" length="31.85" shape="163.58,147.47 159.73,136.79 152.93,130.04 143.18,127.20 142.43,127.27"/>
    </edge>
    <edge id=":ts_25" function="internal">
        <lane id=":ts_25_0" index="0" disallow="tram rail_urban rail rail_electric rail_fast ship container cable_car subway aircraft wheelchair scooter drone" speed="13.34" length="11.94" shape="141.27,128.08 138.52,126.63 129.81,125.16"/>
    </edge>
    <edge id=":ts_26" function="internal">
        <lane id=":ts_26_0" index="0" disallow="tram rail_urban rail rail_electric rail_fast ship container cable_car subway aircraft wheelchair scooter drone" speed="13.60" length="11.98" shape="142.43,127.27 130.49,128.29"/>
    </edge>
    <edge id=":ts_11" function="internal">
        <lane id=":ts_11_0" index="0" disallow="tram rail_urban rail rail_electric rail_fast ship container cable_car subway aircraft wheelchair scooter drone" speed="7.39" length="11.70" shape="134.18,145.44 136.69,145.47 138.77,146.70 140.43,149.13 141.66,152.76"/>
        <lane id=":ts_11_1" index="1" disallow="tram rail_urban rail rail_electric rail_fast ship container cable_car subway aircraft wheelchair scooter drone" speed="8.07" length="14.12" shape="134.18,145.44 138.06,145.18 141.11,146.18 143.35,148.46 144.77,152.01"/>
    </edge>
    <edge id=":ts_13" function="internal">
        <lane id=":ts_13_0" index="0" disallow="tram rail_urban rail rail_electric rail_fast ship container cable_car subway aircraft wheelchair scooter drone" speed="20.84" length="40.67" shape="133.51,142.31 173.68,136.21"/>
        <lane id=":ts_13_1" index="1" disallow="tram rail_urban rail rail_electric rail_fast ship container cable_car subway aircraft wheelchair scooter drone" speed="20.84" length="40.67" shape="132.83,139.19 173.08,133.06"/>
    </edge>
    <edge id=":ts_15" function="internal">
        <lane id=":ts_15_0" index="0" disallow="tram rail_urban rail rail_electric rail_fast ship container cable_car subway aircraft wheelchair scooter drone" speed="14.00" length="44.72" shape="132.16,136.06 140.43,131.25 150.04,121.87 157.74,111.33 160.29,103.05"/>
        <lane id=":ts_15_1" index="1" disallow="tram rail_urban rail rail_electric rail_fast ship container cable_car subway aircraft wheelchair scooter drone" speed="13.32" length="40.38" shape="131.49,132.93 139.37,128.69 148.12,120.54 154.96,111.27 157.14,103.62"/>
    </edge>
    <edge id=":ts_17" function="internal">
        <lane id=":ts_17_0" index="0" disallow="tram rail_urban rail rail_electric rail_fast ship container cable_car subway aircraft wheelchair scooter drone" speed="6.83" length="9.85" shape="132.10,108.22 132.28,111.08 131.62,113.30 130.12,114.86 127.79,115.78"/>
        <lane id=":ts_17_1" index="1" disallow="tram rail_urban rail rail_electric rail_fast ship container cable_car subway aircraft wheelchair scooter drone" speed="8.27" length="14.90" shape="135.25,107.64 135.48,111.88 134.43,115.17 132.09,117.51 128.47,118.91"/>
    </edge>
    <edge id=":ts_19" function="internal">
        <lane id=":ts_19_0" index="0" disallow="tram rail_urban rail rail_electric rail_fast ship container cable_car subway aircraft wheelchair scooter drone" speed="11.11" length="45.48" shape="135.25,107.64 141.66,152.76"/>
        <lane id=":ts_19_1" index="1" disallow="tram rail_urban rail rail_electric rail_fast ship container cable_car subway aircraft wheelchair scooter drone" speed="11.11" length="45.48" shape="135.25,107.64 144.77,152.01"/>
    </edge>
    <edge id=":ts_21" function="internal">
        <lane id=":ts_21_0" index="0" disallow="tram rail_urban rail rail_electric rail_fast ship container cable_car subway aircraft wheelchair scooter drone" speed="12.50" length="30.16" shape="138.39,107.06 143.18,114.55 152.78,122.38 160.60,126.59"/>
        <lane id=":ts_21_1" index="1" disallow="tram rail_urban rail rail_electric rail_fast ship container cable_car subway aircraft wheelchair scooter drone" speed="12.50" length="31.83" shape="138.39,107.06 142.25,117.72 149.12,124.56 159.00,127.58 159.47,127.55"/>
    </edge>
    <edge id=":ts_27" function="internal">
        <lane id=":ts_27_0" index="0" disallow="tram rail_urban rail rail_electric rail_fast ship container cable_car subway aircraft wheelchair scooter drone" speed="12.50" length="12.47" shape="160.60,126.59 163.71,128.27 172.49,129.92"/>
    </edge>
    <edge id=":ts_28" function="internal">
        <lane id=":ts_28_0" index="0" disallow="tram rail_urban rail rail_electric rail_fast ship container cable_car subway aircraft wheelchair scooter drone" speed="12.50" length="12.45" shape="159.47,127.55 171.90,126.78"/>
    </edge>

    <edge id="e0_ts" from="e0" to="ts" name="千日前通" priority="11" type="highway.secondary" spreadType="center" shape="250.22,100.56 176.93,112.20 160.96,115.12">
        <lane id="e0_ts_0" index="0" disallow="tram rail_urban rail rail_electric rail_fast ship container cable_car subway aircraft wheelchair scooter drone" speed="13.89" length="81.85" shape="249.22,94.24 175.85,105.89 168.23,107.28">
            <param key="origId" value="399274766"/>
        </lane>
        <lane id="e0_ts_1" index="1" disallow="tram rail_urban rail rail_electric rail_fast ship container cable_car subway aircraft wheelchair scooter drone" speed="13.89" length="81.85" shape="249.72,97.40 176.39,109.05 168.82,110.43">
            <param key="origId" value="399274766"/>
        </lane>
        <lane id="e0_ts_2" index="2" disallow="tram rail_urban rail rail_electric rail_fast ship container cable_car subway aircraft wheelchair scooter drone" speed="13.89" length="81.85" shape="250.22,100.56 176.93,112.20 169.41,113.57">
            <param key="origId" value="399274766"/>
        </lane>
        <lane id="e0_ts_3" index="3" disallow="tram rail_urban rail rail_electric rail_fast ship container cable_car subway aircraft wheelchair scooter drone" speed="13.89" length="81.85" shape="250.72,103.72 177.47,115.35 170.01,116.72">
            <param key="origId" value="399274766"/>
        </lane>
        <lane id="e0_ts_4" index="4" disallow="tram rail_urban rail rail_electric rail_fast ship container cable_car subway aircraft wheelchair scooter drone" speed="13.89" length="81.85" shape="251.22,106.88 178.01,118.51 170.60,119.86">
            <param key="origId" value="399274766"/>
        </lane>
        <param key="origTo" value="1827324742"/>
        <param key="ref" value="702"/>
    </edge>
    <edge id="n01_n0" from="n01" to="n0" priority="-1" shape="178.76,274.56 167.78,205.29">
        <lane id="n01_n0_0" index="0" speed="13.89" length="70.13" shape="192.98,272.31 182.00,203.04"/>
        <lane id="n01_n0_1" index="1" speed="13.89" length="70.13" shape="189.82,272.81 178.84,203.54"/>
        <lane id="n01_n0_2" index="2" speed="13.89" length="70.13" shape="186.66,273.31 175.68,204.04"/>
        <lane id="n01_n0_3" index="3" speed="13.89" length="70.13" shape="183.50,273.81 172.52,204.54"/>
        <lane id="n01_n0_4" index="4" speed="13.89" length="70.13" shape="180.34,274.31 169.36,205.04"/>
    </edge>
    <edge id="n0_s1" from="n0" to="s1" name="谷町筋;大阪和泉泉南線" priority="12" type="highway.primary" spreadType="center" shape="166.34,194.18 135.74,14.42">
        <lane id="n0_s1_0" index="0" disallow="tram rail_urban rail rail_electric rail_fast ship container cable_car subway aircraft wheelchair scooter drone" speed="27.78" length="182.57" shape="167.95,194.12 137.32,14.15">
            <param key="origId" value="171464662"/>
        </lane>
        <lane id="n0_s1_1" index="1" disallow="tram rail_urban rail rail_electric rail_fast ship container cable_car subway aircraft wheelchair scooter drone" speed="27.78" length="182.57" shape="164.80,194.67 134.16,14.69">
            <param key="origId" value="171464662"/>
        </lane>
        <param key="ref" value="30"/>
    </edge>
    <edge id="n0_ts" from="n0" to="ts" name="谷町筋" priority="7" type="highway.primary_link" spreadType="center" shape="174.85,192.92 167.96,153.42 164.42,134.61">
        <lane id="n0_ts_0" index="0" disallow="tram rail_urban rail rail_electric rail_fast ship container cable_car subway aircraft wheelchair scooter drone" speed="11.11" length="46.91" shape="178.00,192.37 171.11,152.85 169.81,145.97">
            <param key="origId" value="407183335"/>
        </lane>
        <lane id="n0_ts_1" index="1" disallow="tram rail_urban rail rail_electric rail_fast ship container cable_car subway aircraft wheelchair scooter drone" speed="11.11" length="46.91" shape="174.85,192.92 167.96,153.42 166.70,146.72">
            <param key="origId" value="407183335"/>
        </lane>
        <lane id="n0_ts_2" index="2" disallow="tram rail_urban rail rail_electric rail_fast ship container cable_car subway aircraft wheelchair scooter drone" speed="11.11" length="46.91" shape="171.70,193.47 164.81,153.99 163.58,147.47">
            <param key="origId" value="407183335"/>
        </lane>
        <param key="origTo" value="448961308"/>
        <param key="ref" value="30"/>
    </edge>
    <edge id="n1_n11" from="n1" to="n11" priority="-1" shape="164.61,206.17 177.19,281.53">
        <lane id="n1_n11_0" index="0" speed="13.89" length="76.40" acceleration="1" shape="153.56,208.01 166.14,283.37"/>
        <lane id="n1_n11_1" index="1" speed="13.89" length="76.40" acceleration="1" shape="156.72,207.49 169.30,282.85"/>
        <lane id="n1_n11_2" index="2" speed="13.89" length="76.40" shape="159.88,206.96 172.46,282.32"/>
        <lane id="n1_n11_3" index="3" speed="13.89" length="76.40" shape="163.03,206.43 175.61,281.79"/>
    </edge>
    <edge id="s01_s0" from="s01" to="s0" priority="-1" shape="119.87,-34.83 128.00,7.38">
        <lane id="s01_s0_0" index="0" speed="13.89" length="42.30" shape="105.73,-32.11 113.72,9.38"/>
        <lane id="s01_s0_1" index="1" speed="13.89" length="42.30" shape="108.87,-32.71 116.87,8.80"/>
        <lane id="s01_s0_2" index="2" speed="13.89" length="42.30" shape="112.01,-33.32 120.01,8.22"/>
        <lane id="s01_s0_3" index="3" speed="13.89" length="42.30" shape="115.16,-33.92 123.16,7.64"/>
        <lane id="s01_s0_4" index="4" speed="13.89" length="42.30" shape="118.30,-34.53 126.31,7.06"/>
    </edge>
    <edge id="s0_n1" from="s0" to="n1" name="谷町筋;大阪和泉泉南線" priority="12" type="highway.primary" spreadType="center" shape="129.89,24.38 158.51,195.45">
        <lane id="s0_n1_0" index="0" disallow="pedestrian tram rail_urban rail rail_electric rail_fast ship container cable_car subway aircraft wheelchair scooter drone" speed="27.78" length="173.16" shape="128.36,24.94 156.93,195.71">
            <param key="origId" value="171464657"/>
        </lane>
        <lane id="s0_n1_1" index="1" disallow="pedestrian tram rail_urban rail rail_electric rail_fast ship container cable_car subway aircraft wheelchair scooter drone" speed="27.78" length="173.16" shape="131.51,24.38 160.09,195.19">
            <param key="origId" value="171464657"/>
        </lane>
        <param key="ref" value="30"/>
    </edge>
    <edge id="s0_ts" from="s0" to="ts" name="谷町筋" priority="7" type="highway.primary_link" spreadType="center" shape="120.75,26.29 133.20,96.68 137.60,120.24">
        <lane id="s0_ts_0" index="0" disallow="tram rail_urban rail rail_electric rail_fast ship container cable_car subway aircraft wheelchair scooter drone" speed="11.11" length="82.63" shape="117.60,26.85 130.05,97.25 132.10,108.22">
            <param key="origId" value="1065890199"/>
        </lane>
        <lane id="s0_ts_1" index="1" disallow="tram rail_urban rail rail_electric rail_fast ship container cable_car subway aircraft wheelchair scooter drone" speed="11.11" length="82.63" shape="120.75,26.29 133.20,96.68 135.25,107.64">
            <param key="origId" value="1065890199"/>
        </lane>
        <lane id="s0_ts_2" index="2" disallow="tram rail_urban rail rail_electric rail_fast ship container cable_car subway aircraft wheelchair scooter drone" speed="11.11" length="82.63" shape="123.90,25.73 136.35,96.11 138.39,107.06">
            <param key="origId" value="1065890199"/>
        </lane>
        <param key="origTo" value="439280583"/>
        <param key="ref" value="30"/>
    </edge>
    <edge id="s1_s11" from="s1" to="s11" priority="-1" shape="131.38,2.18 126.35,-26.84">
        <lane id="s1_s11_0" index="0" speed="13.89" length="29.45" acceleration="1" shape="142.42,0.27 137.39,-28.75"/>
        <lane id="s1_s11_1" index="1" speed="13.89" length="29.45" acceleration="1" shape="139.26,0.81 134.23,-28.21"/>
        <lane id="s1_s11_2" index="2" speed="13.89" length="29.45" shape="136.11,1.36 131.08,-27.66"/>
        <lane id="s1_s11_3" index="3" speed="13.89" length="29.45" shape="132.96,1.91 127.93,-27.11"/>
    </edge>
    <edge id="ts_e1" from="ts" to="e1" name="千日前通" priority="11" type="highway.secondary" spreadType="center" shape="164.45,134.69 179.75,131.81 254.48,120.00">
        <lane id="ts_e1_0" index="0" disallow="tram rail_urban rail rail_electric rail_fast ship container cable_car subway aircraft wheelchair scooter drone" speed="13.89" length="82.44" shape="174.27,139.35 180.84,138.12 255.48,126.32">
            <param key="origId" value="891811147"/>
        </lane>
        <lane id="ts_e1_1" index="1" disallow="tram rail_urban rail rail_electric rail_fast ship container cable_car subway aircraft wheelchair scooter drone" speed="13.89" length="82.44" shape="173.68,136.21 180.30,134.96 254.98,123.16">
            <param key="origId" value="891811147"/>
        </lane>
        <lane id="ts_e1_2" index="2" disallow="tram rail_urban rail rail_electric rail_fast ship container cable_car subway aircraft wheelchair scooter drone" speed="13.89" length="82.44" shape="173.08,133.06 179.75,131.81 254.48,120.00">
            <param key="origId" value="891811147"/>
        </lane>
        <lane id="ts_e1_3" index="3" disallow="tram rail_urban rail rail_electric rail_fast ship container cable_car subway aircraft wheelchair scooter drone" speed="13.89" length="82.44" shape="172.49,129.92 179.20,128.66 253.98,116.84">
            <param key="origId" value="891811147"/>
        </lane>
        <lane id="ts_e1_4" index="4" disallow="tram rail_urban rail rail_electric rail_fast ship container cable_car subway aircraft wheelchair scooter drone" speed="13.89" length="82.44" shape="171.90,126.78 178.66,125.50 253.48,113.68">
            <param key="origId" value="891811147"/>
        </lane>
        <param key="origFrom" value="448961308"/>
        <param key="ref" value="702"/>
    </edge>
    <edge id="ts_n1" from="ts" to="n1" name="谷町筋" priority="7" type="highway.primary_link" spreadType="center" shape="139.68,137.69 144.45,157.53 150.90,196.79">
        <lane id="ts_n1_0" index="0" disallow="tram rail_urban rail rail_electric rail_fast ship container cable_car subway aircraft wheelchair scooter drone" speed="11.11" length="45.08" shape="141.66,152.76 142.88,157.85 149.32,197.05">
            <param key="origId" value="891811148"/>
        </lane>
        <lane id="ts_n1_1" index="1" disallow="tram rail_urban rail rail_electric rail_fast ship container cable_car subway aircraft wheelchair scooter drone" speed="11.11" length="45.08" shape="144.77,152.01 146.02,157.21 152.48,196.53">
            <param key="origId" value="891811148"/>
        </lane>
        <param key="origFrom" value="448961307"/>
        <param key="ref" value="30"/>
    </edge>
    <edge id="ts_s1" from="ts" to="s1" name="谷町筋" priority="7" type="highway.primary_link" spreadType="center" shape="160.89,115.20 156.71,92.42 151.02,58.99 144.12,13.08">
        <lane id="ts_s1_0" index="0" disallow="tram rail_urban rail rail_electric rail_fast ship container cable_car subway aircraft wheelchair scooter drone" speed="11.11" length="91.52" shape="160.29,103.05 158.29,92.14 152.60,58.74 145.68,12.73">
            <param key="origId" value="891811146"/>
        </lane>
        <lane id="ts_s1_1" index="1" disallow="tram rail_urban rail rail_electric rail_fast ship container cable_car subway aircraft wheelchair scooter drone" speed="11.11" length="91.52" shape="157.14,103.62 155.13,92.70 149.44,59.24 142.53,13.26">
            <param key="origId" value="891811146"/>
        </lane>
        <param key="origFrom" value="1827324742"/>
        <param key="ref" value="30"/>
    </edge>
    <edge id="ts_w1" from="ts" to="w1" name="千日前通" priority="11" type="highway.secondary" spreadType="center" shape="137.57,120.22 121.13,123.76 30.00,127.06">
        <lane id="ts_w1_0" index="0" disallow="tram rail_urban rail rail_electric rail_fast ship container cable_car subway aircraft wheelchair scooter drone" speed="27.78" length="99.38" shape="127.79,115.78 120.33,117.38 29.77,120.66">
            <param key="origId" value="1065748687"/>
        </lane>
        <lane id="ts_w1_1" index="1" disallow="tram rail_urban rail rail_electric rail_fast ship container cable_car subway aircraft wheelchair scooter drone" speed="27.78" length="99.38" shape="128.47,118.91 120.73,120.57 29.88,123.86">
            <param key="origId" value="1065748687"/>
        </lane>
        <lane id="ts_w1_2" index="2" disallow="tram rail_urban rail rail_electric rail_fast ship container cable_car subway aircraft wheelchair scooter drone" speed="27.78" length="99.38" shape="129.14,122.04 121.13,123.76 30.00,127.06">
            <param key="origId" value="1065748687"/>
        </lane>
        <lane id="ts_w1_3" index="3" disallow="tram rail_urban rail rail_electric rail_fast ship container cable_car subway aircraft wheelchair scooter drone" speed="27.78" length="99.38" shape="129.81,125.16 121.53,126.95 30.12,130.26">
            <param key="origId" value="1065748687"/>
        </lane>
        <lane id="ts_w1_4" index="4" disallow="tram rail_urban rail rail_electric rail_fast ship container cable_car subway aircraft wheelchair scooter drone" speed="27.78" length="99.38" shape="130.49,128.29 121.93,130.14 30.23,133.46">
            <param key="origId" value="1065748687"/>
        </lane>
        <param key="origFrom" value="439280583"/>
        <param key="ref" value="702"/>
    </edge>
    <edge id="w0_ts" from="w0" to="ts" name="千日前通" priority="11" type="highway.secondary" spreadType="center" shape="39.36,145.33 123.65,141.12 139.75,137.73">
        <lane id="w0_ts_0" index="0" disallow="tram rail_urban rail rail_electric rail_fast ship container cable_car subway aircraft wheelchair scooter drone" speed="27.78" length="93.78" shape="39.68,151.72 124.47,147.49 134.18,145.44">
            <param key="origId" value="171751729"/>
        </lane>
        <lane id="w0_ts_1" index="1" disallow="tram rail_urban rail rail_electric rail_fast ship container cable_car subway aircraft wheelchair scooter drone" speed="27.78" length="93.78" shape="39.52,148.53 124.06,144.30 133.51,142.31">
            <param key="origId" value="171751729"/>
        </lane>
        <lane id="w0_ts_2" index="2" disallow="tram rail_urban rail rail_electric rail_fast ship container cable_car subway aircraft wheelchair scooter drone" speed="27.78" length="93.78" shape="39.36,145.33 123.65,141.12 132.83,139.19">
            <param key="origId" value="171751729"/>
        </lane>