<?xml version="1.0" encoding="UTF-8"?>

<!-- generated on 2024-11-18 14:27:17 by Eclipse SUMO netedit Version 1.20.0
<configuration xmlns:xsi="http://www.w3.org/2001/XMLSchema-instance" xsi:noNamespaceSchemaLocation="http://sumo.dlr.de/xsd/neteditConfiguration.xsd">

    <input>
        <sumocfg-file value="/Users/chashu/Desktop/dev/sumorl-venv/app/data/test.sumocfg"/>
        <additional-files value=""/>
        <route-files value="/Users/chashu/Desktop/dev/sumorl-venv/app/data/./nets/3d_intersection/rou/test.rou.xml"/>
        <sumo-net-file value="/Users/chashu/Desktop/dev/sumorl-venv/app/data/./nets/3d_intersection/nets/test.net.xml"/>
    </input>

    <output>
        <output-file value="/Users/chashu/Desktop/dev/sumorl-venv/app/data/./nets/3d_intersection/nets/test.net.xml"/>
    </output>

    <processing>
        <geometry.min-radius.fix.railways value="false"/>
        <geometry.max-grade.fix value="false"/>
        <offset.disable-normalization value="true"/>
        <lefthand value="1"/>
    </processing>

    <junctions>
        <no-internal-links value="true"/>
        <no-turnarounds value="true"/>
        <junctions.corner-detail value="5"/>
        <junctions.limit-turn-speed value="5.50"/>
        <rectangular-lane-cut value="0"/>
    </junctions>

    <pedestrian>
        <walkingareas value="0"/>
    </pedestrian>

</configuration>
-->

<net version="1.20" junctionCornerDetail="5" lefthand="true" limitTurnSpeed="5.50" xmlns:xsi="http://www.w3.org/2001/XMLSchema-instance" xsi:noNamespaceSchemaLocation="http://sumo.dlr.de/xsd/net_file.xsd">

    <location netOffset="0.00,0.00" convBoundary="-100.00,0.00,100.00,200.00" origBoundary="-10000000000.00,-10000000000.00,10000000000.00,10000000000.00" projParameter="!"/>

    <edge id="e0_w0" from="e0" to="w0" priority="-1">
        <lane id="e0_w0_0" index="0" speed="13.89" length="200.00" shape="100.00,95.20 -100.00,95.20"/>
        <lane id="e0_w0_1" index="1" speed="13.89" length="200.00" shape="100.00,98.40 -100.00,98.40"/>
    </edge>
    <edge id="n0_s0" from="n0" to="s0" priority="-1">
        <lane id="n0_s0_0" index="0" speed="13.89" length="200.00" shape="4.80,200.00 4.80,0.00"/>
        <lane id="n0_s0_1" index="1" speed="13.89" length="200.00" shape="1.60,200.00 1.60,0.00"/>
    </edge>
    <edge id="s0_n0" from="s0" to="n0" priority="-1">
        <lane id="s0_n0_0" index="0" speed="13.89" length="200.00" shape="-4.80,0.00 -4.80,200.00"/>
        <lane id="s0_n0_1" index="1" speed="13.89" length="200.00" shape="-1.60,0.00 -1.60,200.00"/>
    </edge>
    <edge id="w0_e0" from="w0" to="e0" priority="-1">
        <lane id="w0_e0_0" index="0" speed="13.89" length="200.00" shape="-100.00,104.80 100.00,104.80"/>
        <lane id="w0_e0_1" index="1" speed="13.89" length="200.00" shape="-100.00,101.60 100.00,101.60"/>
    </edge>

    <junction id="e0" type="dead_end" x="100.00" y="100.00" incLanes="w0_e0_0 w0_e0_1" intLanes="" shape="100.00,100.00 100.00,106.40 100.00,100.00"/>
    <junction id="n0" type="dead_end" x="0.00" y="200.00" incLanes="s0_n0_0 s0_n0_1" intLanes="" shape="0.00,200.00 -6.40,200.00 0.00,200.00"/>
    <junction id="s0" type="dead_end" x="0.00" y="0.00" incLanes="n0_s0_0 n0_s0_1" intLanes="" shape="0.00,0.00 6.40,0.00 0.00,0.00"/>
    <junction id="w0" type="dead_end" x="-100.00" y="100.00" incLanes="e0_w0_0 e0_w0_1" intLanes="" shape="-100.00,100.00 -100.00,93.60 -100.00,100.00"/>

</net>
