<?xml version="1.0" encoding="UTF-8"?>

<!-- generated on 2024-11-26 11:43:37 by Eclipse SUMO netedit Version 1.20.0
<configuration xmlns:xsi="http://www.w3.org/2001/XMLSchema-instance" xsi:noNamespaceSchemaLocation="http://sumo.dlr.de/xsd/neteditConfiguration.xsd">

    <input>
        <sumo-net-file value="/Users/chashu/Desktop/dev/sumorl-venv/app/data/ehira/ehira_2.net.xml"/>
    </input>

    <output>
        <output-file value="/Users/chashu/Desktop/dev/sumorl-venv/app/data/ehira/ehira_2.net.xml"/>
    </output>

    <processing>
        <geometry.min-radius.fix.railways value="false"/>
        <geometry.max-grade.fix value="false"/>
        <offset.disable-normalization value="true"/>
        <lefthand value="true"/>
    </processing>

    <junctions>
        <no-internal-links value="false"/>
        <no-turnarounds value="true"/>
    </junctions>

    <pedestrian>
        <walkingareas value="true"/>
    </pedestrian>

    <netedit>
        <new-network value="false"/>
    </netedit>

</configuration>
-->

<net version="1.20" junctionCornerDetail="5" walkingareas="true" lefthand="true" limitTurnSpeed="5.50" xmlns:xsi="http://www.w3.org/2001/XMLSchema-instance" xsi:noNamespaceSchemaLocation="http://sumo.dlr.de/xsd/net_file.xsd">

    <location netOffset="0.00,-0.00" convBoundary="-134.27,-129.60,132.07,135.74" origBoundary="10000000000.00,10000000000.00,-10000000000.00,-10000000000.00" projParameter="!"/>

    <edge id=":J10_0" function="internal">
        <lane id=":J10_0_0" index="0" speed="13.89" length="8.37" shape="-124.01,21.98 -116.07,20.96"/>
        <lane id=":J10_0_1" index="1" speed="13.89" length="8.37" shape="-124.01,21.98 -121.64,21.18 -120.27,19.91 -118.89,18.63 -116.53,17.79"/>
    </edge>
    <edge id=":J10_w0" function="walkingarea">
        <lane id=":J10_w0_0" index="0" allow="pedestrian" speed="2.78" length="8.00" width="3.20" shape="-116.76,16.21 -115.84,22.54 -123.80,23.56 -124.21,20.39 -121.34,19.20 -120.48,18.33 -119.63,17.45 -118.49,16.70"/>
    </edge>
    <edge id=":J19_w0" function="walkingarea">
        <lane id=":J19_w0_0" index="0" allow="pedestrian" speed="2.78" length="0.10" width="3.20" shape="42.92,134.86 52.21,132.45"/>
    </edge>
    <edge id=":J20_0" function="internal">
        <lane id=":J20_0_0" index="0" speed="13.89" length="15.22" shape="34.44,70.32 33.68,65.85 33.73,62.69 33.75,59.53 32.91,55.08"/>
        <lane id=":J20_0_1" index="1" speed="13.89" length="15.22" shape="34.44,70.32 29.83,55.94"/>
        <lane id=":J20_0_2" index="2" speed="13.89" length="15.22" shape="31.35,71.12 26.74,56.81"/>
        <lane id=":J20_0_3" index="3" speed="13.89" length="15.22" shape="28.25,71.93 23.66,57.67"/>
        <lane id=":J20_0_4" index="4" speed="13.89" length="15.22" shape="28.25,71.93 26.53,67.73 24.47,65.21 22.38,62.71 20.58,58.53"/>
    </edge>
    <edge id=":J20_w0" function="walkingarea">
        <lane id=":J20_w0_0" index="0" allow="pedestrian" speed="2.78" length="15.32" width="3.20" shape="35.99,69.92 26.70,72.33 25.60,69.27 24.32,67.20 22.92,65.63 21.52,64.07 20.19,62.01 19.04,58.96 34.45,54.65 35.15,57.83 35.34,60.24 35.27,62.27 35.20,64.30 35.35,66.72"/>
    </edge>
    <edge id=":J23_w0" function="walkingarea">
        <lane id=":J23_w0_0" index="0" allow="pedestrian" speed="2.78" length="0.10" width="3.20" shape="31.00,138.31 40.25,135.74"/>
    </edge>
    <edge id=":J24_w0" function="walkingarea">
        <lane id=":J24_w0_0" index="0" allow="pedestrian" speed="2.78" length="0.10" width="3.20" shape="85.32,-129.60 79.80,-132.84"/>
    </edge>
    <edge id=":J25_0" function="internal">
        <lane id=":J25_0_0" index="0" speed="13.89" length="14.51" shape="39.65,-61.20 36.98,-57.46 34.49,-55.00 32.23,-52.89 30.25,-50.21"/>
    </edge>
    <edge id=":J25_1" function="internal">
        <lane id=":J25_1_0" index="0" speed="13.89" length="14.32" shape="39.65,-61.20 33.07,-48.64"/>
        <lane id=":J25_1_1" index="1" speed="13.89" length="14.32" shape="42.41,-59.58 35.86,-47.09"/>
        <lane id=":J25_1_2" index="2" speed="13.89" length="14.32" shape="42.41,-59.58 40.76,-55.63 40.46,-52.60 40.20,-49.53 38.66,-45.53"/>
    </edge>
    <edge id=":J25_w0" function="walkingarea">
        <lane id=":J25_w0_0" index="0" allow="pedestrian" speed="2.78" length="10.62" width="3.20" shape="38.26,-62.01 43.79,-58.77 42.48,-56.00 41.96,-53.77 41.85,-51.80 41.76,-49.82 41.29,-47.57 40.06,-44.75 28.85,-50.99 30.52,-53.57 32.04,-55.27 33.51,-56.53 34.98,-57.78 36.54,-59.46"/>
    </edge>
    <edge id=":J29_w0" function="walkingarea">
        <lane id=":J29_w0_0" index="0" allow="pedestrian" speed="2.78" length="0.10" width="3.20" shape="93.95,-126.38 88.38,-129.54"/>
    </edge>
    <edge id=":J3_w0" function="walkingarea">
        <lane id=":J3_w0_0" index="0" allow="pedestrian" speed="2.78" length="0.10" width="3.20" shape="-27.25,-122.93 -36.59,-120.73"/>
    </edge>
    <edge id=":J4_0" function="internal">
        <lane id=":J4_0_0" index="0" speed="13.89" length="23.47" shape="-27.80,-90.38 -22.57,-67.66"/>
        <lane id=":J4_0_1" index="1" speed="13.89" length="23.47" shape="-24.68,-91.12 -19.44,-68.34"/>
        <lane id=":J4_0_2" index="2" speed="13.89" length="23.47" shape="-21.57,-91.85 -16.31,-69.01"/>
        <lane id=":J4_0_3" index="3" speed="13.89" length="23.47" shape="-21.57,-91.85 -19.46,-85.15 -17.30,-80.79 -15.17,-76.42 -13.18,-69.69"/>
    </edge>
    <edge id=":J4_w0" function="walkingarea">
        <lane id=":J4_w0_0" index="0" allow="pedestrian" speed="2.78" length="23.32" width="3.20" shape="-11.62,-70.03 -24.13,-67.32 -29.35,-90.02 -20.01,-92.22 -18.62,-87.37 -17.18,-83.91 -15.74,-81.14 -14.31,-78.37 -12.92,-74.90"/>
    </edge>
    <edge id=":J7_w0" function="walkingarea">
        <lane id=":J7_w0_0" index="0" allow="pedestrian" speed="2.78" length="0.10" width="3.20" shape="-14.58,-125.73 -23.95,-123.63"/>
    </edge>
    <edge id=":clusterJ11_J12_J16_J17_#7more_0" function="internal">
        <lane id=":clusterJ11_J12_J16_J17_#7more_0_0" index="0" speed="13.89" length="55.95" shape="24.05,-25.48 16.77,-15.93 6.47,-8.38 -6.85,-2.82 -23.20,0.74"/>
    </edge>
    <edge id=":clusterJ11_J12_J16_J17_#7more_1" function="internal">
        <lane id=":clusterJ11_J12_J16_J17_#7more_1_0" index="0" speed="13.89" length="55.38" shape="26.85,-23.92 20.36,-12.40 13.42,1.19 8.59,15.03 8.42,27.27"/>
    </edge>
    <edge id=":clusterJ11_J12_J16_J17_#7more_2" function="internal">
        <lane id=":clusterJ11_J12_J16_J17_#7more_2_0" index="0" speed="10.88" length="35.83" shape="26.85,-23.92 22.90,-14.05 22.80,-5.76 27.08,0.16 36.28,2.95"/>
    </edge>
    <edge id=":clusterJ11_J12_J16_J17_#7more_3" function="internal">
        <lane id=":clusterJ11_J12_J16_J17_#7more_3_0" index="0" speed="9.42" length="26.76" shape="36.63,-0.38 30.59,-2.13 27.85,-6.14 28.39,-12.40 32.22,-20.91"/>
    </edge>
    <edge id=":clusterJ11_J12_J16_J17_#7more_4" function="internal">
        <lane id=":clusterJ11_J12_J16_J17_#7more_4_0" index="0" speed="13.89" length="49.81" shape="36.63,-0.38 23.75,-3.14 13.66,-9.11 6.35,-18.29 1.82,-30.67"/>
    </edge>
    <edge id=":clusterJ11_J12_J16_J17_#7more_5" function="internal">
        <lane id=":clusterJ11_J12_J16_J17_#7more_5_0" index="0" speed="13.89" length="59.85" shape="36.63,-0.38 25.87,-0.47 6.70,-0.24 -12.47,0.21 -23.20,0.74"/>
    </edge>
    <edge id=":clusterJ11_J12_J16_J17_#7more_6" function="internal">
        <lane id=":clusterJ11_J12_J16_J17_#7more_6_0" index="0" speed="12.94" length="49.24" shape="36.63,-0.38 22.16,0.22 12.11,4.85 7.27,13.78 8.42,27.27"/>
    </edge>
    <edge id=":clusterJ11_J12_J16_J17_#7more_7" function="internal">
        <lane id=":clusterJ11_J12_J16_J17_#7more_7_0" index="0" speed="10.10" length="29.53" shape="23.91,22.90 22.43,13.61 24.00,7.18 28.62,3.63 36.28,2.95"/>
    </edge>
    <edge id=":clusterJ11_J12_J16_J17_#7more_8" function="internal">
        <lane id=":clusterJ11_J12_J16_J17_#7more_8_0" index="0" speed="13.89" length="45.73" shape="23.91,22.90 22.38,12.83 23.25,2.17 26.53,-9.08 32.22,-20.91"/>
    </edge>
    <edge id=":clusterJ11_J12_J16_J17_#7more_9" function="internal">
        <lane id=":clusterJ11_J12_J16_J17_#7more_9_0" index="0" speed="13.89" length="57.55" shape="20.83,23.77 4.96,-31.28"/>
        <lane id=":clusterJ11_J12_J16_J17_#7more_9_1" index="1" speed="13.89" length="57.55" shape="17.75,24.64 1.82,-30.67"/>
        <lane id=":clusterJ11_J12_J16_J17_#7more_9_2" index="2" speed="13.89" length="57.55" shape="14.67,25.51 -1.32,-30.05"/>
    </edge>
    <edge id=":clusterJ11_J12_J16_J17_#7more_12" function="internal">
        <lane id=":clusterJ11_J12_J16_J17_#7more_12_0" index="0" speed="13.89" length="7.22" shape="11.59,26.37 8.81,19.71"/>
    </edge>
    <edge id=":clusterJ11_J12_J16_J17_#7more_25" function="internal">
        <lane id=":clusterJ11_J12_J16_J17_#7more_25_0" index="0" speed="13.89" length="40.73" shape="8.81,19.71 6.33,13.73 -1.23,5.24 -11.07,0.91 -23.20,0.74"/>
    </edge>
    <edge id=":clusterJ11_J12_J16_J17_#7more_13" function="internal">
        <lane id=":clusterJ11_J12_J16_J17_#7more_13_0" index="0" speed="13.18" length="36.39" shape="-22.53,7.31 -14.23,7.68 -7.32,11.42 -1.83,18.53 2.26,29.01"/>
    </edge>
    <edge id=":clusterJ11_J12_J16_J17_#7more_14" function="internal">
        <lane id=":clusterJ11_J12_J16_J17_#7more_14_0" index="0" speed="13.89" length="58.99" shape="-22.53,7.31 -9.87,5.97 8.71,4.44 26.38,3.26 36.28,2.95"/>
    </edge>
    <edge id=":clusterJ11_J12_J16_J17_#7more_15" function="internal">
        <lane id=":clusterJ11_J12_J16_J17_#7more_15_0" index="0" speed="13.89" length="63.59" shape="-22.53,7.31 -3.28,3.24 12.27,-2.82 24.10,-10.87 32.22,-20.91"/>
        <lane id=":clusterJ11_J12_J16_J17_#7more_15_1" index="1" speed="13.89" length="60.54" shape="-22.86,4.13 -4.39,0.25 10.48,-5.48 21.75,-13.05 29.43,-22.48"/>
    </edge>
    <edge id=":clusterJ11_J12_J16_J17_#7more_17" function="internal">
        <lane id=":clusterJ11_J12_J16_J17_#7more_17_0" index="0" speed="13.81" length="46.88" shape="-22.86,4.13 -10.91,0.44 -3.33,-6.48 -0.14,-16.65 -1.32,-30.05"/>
    </edge>
    <edge id=":clusterJ11_J12_J16_J17_#7more_18" function="internal">
        <lane id=":clusterJ11_J12_J16_J17_#7more_18_0" index="0" speed="11.16" length="30.14" shape="-13.03,-23.57 -11.86,-13.74 -13.17,-6.41 -16.95,-1.59 -23.20,0.74"/>
    </edge>
    <edge id=":clusterJ11_J12_J16_J17_#7more_19" function="internal">
        <lane id=":clusterJ11_J12_J16_J17_#7more_19_0" index="0" speed="13.89" length="54.70" shape="-13.03,-23.57 2.26,29.01"/>
        <lane id=":clusterJ11_J12_J16_J17_#7more_19_1" index="1" speed="13.89" length="54.70" shape="-9.93,-24.40 5.34,28.14"/>
        <lane id=":clusterJ11_J12_J16_J17_#7more_19_2" index="2" speed="13.89" length="54.70" shape="-6.83,-25.20 8.42,27.27"/>
    </edge>
    <edge id=":clusterJ11_J12_J16_J17_#7more_22" function="internal">
        <lane id=":clusterJ11_J12_J16_J17_#7more_22_0" index="0" speed="13.89" length="17.33" shape="-6.83,-25.20 -2.10,-14.04 1.66,-10.43"/>
    </edge>
    <edge id=":clusterJ11_J12_J16_J17_#7more_23" function="internal">
        <lane id=":clusterJ11_J12_J16_J17_#7more_23_0" index="0" speed="10.85" length="4.63" shape="-3.73,-26.01 -1.56,-21.91"/>
    </edge>
    <edge id=":clusterJ11_J12_J16_J17_#7more_26" function="internal">
        <lane id=":clusterJ11_J12_J16_J17_#7more_26_0" index="0" speed="13.89" length="38.00" shape="1.66,-10.43 6.66,-5.63 19.45,0.03 36.28,2.95"/>
    </edge>
    <edge id=":clusterJ11_J12_J16_J17_#7more_27" function="internal">
        <lane id=":clusterJ11_J12_J16_J17_#7more_27_0" index="0" speed="10.85" length="39.70" shape="-1.56,-21.91 1.82,-15.55 10.89,-11.41 20.94,-13.68 29.43,-22.48"/>
    </edge>
    <edge id=":clusterJ11_J12_J16_J17_#7more_24" function="internal">
        <lane id=":clusterJ11_J12_J16_J17_#7more_24_0" index="0" speed="4.39" length="1.93" shape="6.68,-31.20 6.10,-31.23 5.59,-31.04 5.20,-30.96 4.96,-31.28"/>
    </edge>
    <edge id=":clusterJ11_J12_J16_J17_#7more_w0" function="walkingarea">
        <lane id=":clusterJ11_J12_J16_J17_#7more_w0_0" index="0" allow="pedestrian" speed="2.78" length="40.62" width="3.20" shape="18.75,-28.45 33.62,-20.13 29.28,-12.90 26.56,-7.47 26.94,-5.40 28.92,-3.41 32.12,-2.56 36.80,-2.02 36.16,4.04 30.34,4.31 26.81,5.58 24.34,8.64 22.79,12.81 23.06,17.94 24.15,22.83 0.87,29.40 -2.22,19.17 -4.82,15.13 -8.31,12.09 -12.47,10.26 -17.50,8.92 -22.34,9.20 -23.46,-1.76 -19.31,-4.01 -16.31,-6.05 -13.87,-10.08 -13.14,-15.13 -13.94,-23.36 -1.83,-26.50 -2.62,-29.80 6.57,-31.60 11.20,-15.26 17.49,-25.99"/>
    </edge>

    <edge id="E0" from="J3" to="J4" priority="-1" shape="-27.25,-122.93 -20.01,-92.22">
        <lane id="E0_0" index="0" speed="13.89" length="31.55" shape="-35.04,-121.09 -27.80,-90.38"/>
        <lane id="E0_1" index="1" speed="13.89" length="31.55" shape="-31.92,-121.83 -24.68,-91.12"/>
        <lane id="E0_2" index="2" speed="13.89" length="31.55" shape="-28.81,-122.56 -21.57,-91.85"/>
    </edge>
    <edge id="E1" from="J4" to="clusterJ11_J12_J16_J17_#7more" priority="-1" shape="-11.62,-70.03 -2.08,-25.94">
        <lane id="E1_0" index="0" speed="13.89" length="44.90" shape="-22.57,-67.66 -13.03,-23.57"/>
        <lane id="E1_1" index="1" speed="13.89" length="44.90" shape="-19.44,-68.34 -9.93,-24.40"/>
        <lane id="E1_2" index="2" speed="13.89" length="44.90" shape="-16.31,-69.01 -6.83,-25.20"/>
        <lane id="E1_3" index="3" speed="13.89" length="44.90" shape="-13.18,-69.69 -3.73,-26.01"/>
    </edge>
    <edge id="E10" from="clusterJ11_J12_J16_J17_#7more" to="J23" priority="-1" shape="9.92,26.71 40.25,135.74">
        <lane id="E10_0" index="0" speed="13.89" length="113.02" shape="2.26,29.01 32.54,137.88"/>
        <lane id="E10_1" index="1" speed="13.89" length="113.02" shape="5.34,28.14 35.63,137.03"/>
        <lane id="E10_2" index="2" speed="13.89" length="113.02" shape="8.42,27.27 38.71,136.17"/>
    </edge>
    <edge id="E11" from="J24" to="J25" priority="-1">
        <lane id="E11_0" index="0" speed="13.89" length="82.11" shape="81.18,-132.03 39.65,-61.20"/>
        <lane id="E11_1" index="1" speed="13.89" length="82.11" shape="83.94,-130.41 42.41,-59.58"/>
    </edge>
    <edge id="E12" from="J25" to="clusterJ11_J12_J16_J17_#7more" priority="-1" shape="31.65,-49.43 22.58,-33.12 20.04,-30.80 16.93,-29.04 13.64,-28.11 10.65,-27.92 7.24,-29.26">
        <lane id="E12_0" index="0" speed="13.89" length="34.66" shape="30.25,-50.21 21.31,-34.13 19.09,-32.10 16.31,-30.53 13.37,-29.70 10.90,-29.54 6.68,-31.20"/>
    </edge>
    <edge id="E13" from="J25" to="clusterJ11_J12_J16_J17_#7more" priority="-1" shape="40.03,-44.70 27.98,-22.66">
        <lane id="E13_0" index="0" speed="13.89" length="24.62" shape="33.07,-48.64 21.26,-27.05"/>
        <lane id="E13_1" index="1" speed="13.89" length="24.62" shape="35.86,-47.09 24.05,-25.48"/>
        <lane id="E13_2" index="2" speed="13.89" length="24.62" shape="38.66,-45.53 26.85,-23.92"/>
    </edge>
    <edge id="E14" from="clusterJ11_J12_J16_J17_#7more" to="J29" priority="-1" shape="28.05,-23.29 88.38,-129.54">
        <lane id="E14_0" index="0" speed="13.89" length="122.20" shape="32.22,-20.91 92.55,-127.17"/>
        <lane id="E14_1" index="1" speed="13.89" length="122.20" shape="29.43,-22.48 89.77,-128.75"/>
    </edge>
    <edge id="E2" from="clusterJ11_J12_J16_J17_#7more" to="J7" priority="-1" shape="-3.53,-32.59 -23.95,-123.63">
        <lane id="E2_0" index="0" speed="13.89" length="96.35" shape="4.96,-31.28 -16.14,-125.38"/>
        <lane id="E2_1" index="1" speed="13.89" length="96.35" shape="1.82,-30.67 -19.27,-124.68"/>
        <lane id="E2_2" index="2" speed="13.89" length="96.35" shape="-1.32,-30.05 -22.39,-123.98"/>
    </edge>
    <edge id="E3" from="J9" to="J10" priority="-1" shape="-134.27,21.69 -122.28,20.14">
        <lane id="E3_0" index="0" speed="13.89" length="9.99" shape="-133.91,23.26 -124.01,21.98"/>
    </edge>
    <edge id="E4" from="J10" to="clusterJ11_J12_J16_J17_#7more" priority="-1" shape="-118.68,16.49 -23.26,2.57">
        <lane id="E4_0" index="0" speed="13.89" length="94.60" shape="-116.07,20.96 -22.53,7.31"/>
        <lane id="E4_1" index="1" speed="13.89" length="94.60" shape="-116.53,17.79 -22.86,4.13"/>
    </edge>
    <edge id="E5" from="clusterJ11_J12_J16_J17_#7more" to="J13" priority="-1" shape="-23.19,2.35 -134.13,18.26">
        <lane id="E5_0" index="0" speed="13.89" length="112.29" shape="-23.20,0.74 -134.36,16.68"/>
    </edge>
    <edge id="E6" from="J15" to="clusterJ11_J12_J16_J17_#7more" priority="-1" shape="131.91,8.99 35.77,1.16">
        <lane id="E6_0" index="0" speed="13.89" length="95.73" shape="132.04,7.40 36.63,-0.38"/>
    </edge>
    <edge id="E7" from="clusterJ11_J12_J16_J17_#7more" to="J18" priority="-1" shape="35.73,1.30 132.07,9.20">
        <lane id="E7_0" index="0" speed="13.89" length="95.99" shape="36.28,2.95 131.94,10.79"/>
    </edge>
    <edge id="E8" from="J19" to="J20" priority="-1" shape="42.92,134.86 26.70,72.33">
        <lane id="E8_0" index="0" speed="13.89" length="64.60" shape="50.66,132.85 34.44,70.32"/>
        <lane id="E8_1" index="1" speed="13.89" length="64.60" shape="47.57,133.65 31.35,71.12"/>
        <lane id="E8_2" index="2" speed="13.89" length="64.60" shape="44.47,134.46 28.25,71.93"/>
    </edge>
    <edge id="E9" from="J20" to="clusterJ11_J12_J16_J17_#7more" priority="-1" shape="19.04,58.96 10.00,26.63">
        <lane id="E9_0" index="0" speed="13.89" length="33.40" shape="32.91,55.08 23.91,22.90"/>
        <lane id="E9_1" index="1" speed="13.89" length="33.40" shape="29.83,55.94 20.83,23.77"/>
        <lane id="E9_2" index="2" speed="13.89" length="33.40" shape="26.74,56.81 17.75,24.64"/>
        <lane id="E9_3" index="3" speed="13.89" length="33.40" shape="23.66,57.67 14.67,25.51"/>
        <lane id="E9_4" index="4" speed="13.89" length="33.40" shape="20.58,58.53 11.59,26.37"/>
    </edge>

    <tlLogic id="clusterJ11_J12_J16_J17_#7more" type="static" programID="0" offset="0">
        <phase duration="13" state="rrrrrrrGGGGGgrrrrrGGGGggr"/>
        <phase duration="3"  state="rrrrrrryyyyygrrrrryyyyggr"/>
        <phase duration="6"  state="rrrrrrrrrrrrGrrrrrrrrrGGr"/>
        <phase duration="3"  state="rrrrrrrrrrrryrrrrrrrrryyr"/>
        <phase duration="2"  state="rrrrrrrrrrrrrrrrrrrrrrrrr"/>
        <phase duration="13" state="rrrrrrrrrrrrrGGGGgGrrrrrG"/>
        <phase duration="3"  state="rrrrrrrrrrrrrGGGGgyrrrrry"/>
        <phase duration="6"  state="rrrrrrrrrrrrrGGGGGrrrrrrr"/>
        <phase duration="3"  state="rrrrrrrrrrrrryyyyyrrrrrrr"/>
        <phase duration="2"  state="rrrrrrrrrrrrrrrrrrrrrrrrr"/>
        <phase duration="13" state="rrrGGGGGrrrrrrrrrrrrrrrrr"/>
        <phase duration="3"  state="rrryyyyyrrrrrrrrrrrrrrrrr"/>
        <phase duration="2"  state="rrrrrrrrrrrrrrrrrrrrrrrrr"/>
        <phase duration="13" state="GGGGrrrrrrrrrrrrrrrrrrrrG"/>
        <phase duration="3"  state="yyyyrrrrrrrrrrrrrrrrrrrry"/>
        <phase duration="2"  state="rrrrrrrrrrrrrrrrrrrrrrrrr"/>
    </tlLogic>

    <junction id="J10" type="priority" x="-122.28" y="20.14" incLanes="E3_0" intLanes=":J10_0_0 :J10_0_1" shape="-116.76,16.21 -115.84,22.54 -123.80,23.56 -124.21,20.39 -121.34,19.20 -120.48,18.33 -119.63,17.45 -118.49,16.70">
        <request index="0" response="00" foes="00" cont="0"/>
        <request index="1" response="00" foes="00" cont="0"/>
    </junction>
    <junction id="J13" type="dead_end" x="-134.13" y="18.26" incLanes="E5_0" intLanes="" shape="-134.58,15.09 -134.13,18.26"/>
    <junction id="J15" type="dead_end" x="131.91" y="8.99" incLanes="" intLanes="" shape="131.91,8.99 132.17,5.80"/>
    <junction id="J18" type="dead_end" x="132.07" y="9.20" incLanes="E7_0" intLanes="" shape="131.81,12.39 132.07,9.20"/>
    <junction id="J19" type="dead_end" x="42.92" y="134.86" incLanes="" intLanes="" shape="42.92,134.86 52.21,132.45"/>
    <junction id="J20" type="priority" x="31.06" y="70.34" incLanes="E8_0 E8_1 E8_2" intLanes=":J20_0_0 :J20_0_1 :J20_0_2 :J20_0_3 :J20_0_4" shape="35.99,69.92 26.70,72.33 25.60,69.27 24.32,67.20 22.92,65.63 21.52,64.07 20.19,62.01 19.04,58.96 34.45,54.65 35.15,57.83 35.34,60.24 35.27,62.27 35.20,64.30 35.35,66.72">
        <request index="0" response="00000" foes="00000" cont="0"/>
        <request index="1" response="00000" foes="00000" cont="0"/>
        <request index="2" response="00000" foes="00000" cont="0"/>
        <request index="3" response="00000" foes="00000" cont="0"/>
        <request index="4" response="00000" foes="00000" cont="0"/>
    </junction>
    <junction id="J23" type="dead_end" x="40.25" y="135.74" incLanes="E10_0 E10_1 E10_2" intLanes="" shape="31.00,138.31 40.25,135.74"/>
    <junction id="J24" type="dead_end" x="85.32" y="-129.60" incLanes="" intLanes="" shape="85.32,-129.60 79.80,-132.84"/>
    <junction id="J25" type="priority" x="46.90" y="-64.08" incLanes="E11_0 E11_1" intLanes=":J25_0_0 :J25_1_0 :J25_1_1 :J25_1_2" shape="38.26,-62.01 43.79,-58.77 42.48,-56.00 41.96,-53.77 41.85,-51.80 41.76,-49.82 41.29,-47.57 40.06,-44.75 28.85,-50.99 30.52,-53.57 32.04,-55.27 33.51,-56.53 34.98,-57.78 36.54,-59.46">
        <request index="0" response="0000" foes="0000" cont="0"/>
        <request index="1" response="0000" foes="0000" cont="0"/>
        <request index="2" response="0000" foes="0000" cont="0"/>
        <request index="3" response="0000" foes="0000" cont="0"/>
    </junction>
    <junction id="J29" type="dead_end" x="88.38" y="-129.54" incLanes="E14_0 E14_1" intLanes="" shape="93.95,-126.38 88.38,-129.54"/>
    <junction id="J3" type="dead_end" x="-27.25" y="-122.93" incLanes="" intLanes="" shape="-27.25,-122.93 -36.59,-120.73"/>
    <junction id="J4" type="priority" x="-19.91" y="-88.35" incLanes="E0_0 E0_1 E0_2" intLanes=":J4_0_0 :J4_0_1 :J4_0_2 :J4_0_3" shape="-11.62,-70.03 -24.13,-67.32 -29.35,-90.02 -20.01,-92.22 -18.62,-87.37 -17.18,-83.91 -15.74,-81.14 -14.31,-78.37 -12.92,-74.90">
        <request index="0" response="0000" foes="0000" cont="0"/>
        <request index="1" response="0000" foes="0000" cont="0"/>
        <request index="2" response="0000" foes="0000" cont="0"/>
        <request index="3" response="0000" foes="0000" cont="0"/>
    </junction>
    <junction id="J7" type="dead_end" x="-23.95" y="-123.63" incLanes="E2_0 E2_1 E2_2" intLanes="" shape="-14.58,-125.73 -23.95,-123.63"/>
    <junction id="J9" type="dead_end" x="-133.99" y="22.67" incLanes="" intLanes="" shape="-134.12,21.67 -133.71,24.84"/>
    <junction id="clusterJ11_J12_J16_J17_#7more" type="traffic_light" x="9.19" y="-6.52" incLanes="E13_0 E13_1 E13_2 E6_0 E9_0 E9_1 E9_2 E9_3 E9_4 E4_0 E4_1 E1_0 E1_1 E1_2 E1_3 E12_0" intLanes=":clusterJ11_J12_J16_J17_#7more_0_0 :clusterJ11_J12_J16_J17_#7more_1_0 :clusterJ11_J12_J16_J17_#7more_2_0 :clusterJ11_J12_J16_J17_#7more_3_0 :clusterJ11_J12_J16_J17_#7more_4_0 :clusterJ11_J12_J16_J17_#7more_5_0 :clusterJ11_J12_J16_J17_#7more_6_0 :clusterJ11_J12_J16_J17_#7more_7_0 :clusterJ11_J12_J16_J17_#7more_8_0 :clusterJ11_J12_J16_J17_#7more_9_0 :clusterJ11_J12_J16_J17_#7more_9_1 :clusterJ11_J12_J16_J17_#7more_9_2 :clusterJ11_J12_J16_J17_#7more_25_0 :clusterJ11_J12_J16_J17_#7more_13_0 :clusterJ11_J12_J16_J17_#7more_14_0 :clusterJ11_J12_J16_J17_#7more_15_0 :clusterJ11_J12_J16_J17_#7more_15_1 :clusterJ11_J12_J16_J17_#7more_17_0 :clusterJ11_J12_J16_J17_#7more_18_0 :clusterJ11_J12_J16_J17_#7more_19_0 :clusterJ11_J12_J16_J17_#7more_19_1 :clusterJ11_J12_J16_J17_#7more_19_2 :clusterJ11_J12_J16_J17_#7more_26_0 :clusterJ11_J12_J16_J17_#7more_27_0 :clusterJ11_J12_J16_J17_#7more_24_0" shape="18.75,-28.45 33.62,-20.13 29.28,-12.90 26.56,-7.47 26.94,-5.40 28.92,-3.41 32.12,-2.56 36.80,-2.02 36.16,4.04 30.34,4.31 26.81,5.58 24.34,8.64 22.79,12.81 23.06,17.94 24.15,22.83 0.87,29.40 -2.22,19.17 -4.82,15.13 -8.31,12.09 -12.47,10.26 -17.50,8.92 -22.34,9.20 -23.46,-1.76 -19.31,-4.01 -16.31,-6.05 -13.87,-10.08 -13.14,-15.13 -13.94,-23.36 -1.83,-26.50 -2.62,-29.80 6.57,-31.60 11.20,-15.26 17.49,-25.99" customShape="1">
        <request index="0"  response="0111111000001111000100000" foes="0111111100001111000110000" cont="0"/>
        <request index="1"  response="0111110011101111000100000" foes="0111110011101111001110000" cont="0"/>
        <request index="2"  response="0110000011100000110100000" foes="0110000011100000111110000" cont="0"/>
        <request index="3"  response="0000000000000000100000000" foes="0000000011000000100000000" cont="0"/>
        <request index="4"  response="1100000000000111100000111" foes="1100000011000111100000111" cont="0"/>
        <request index="5"  response="0011111000001111100000000" foes="0011111111001111100000111" cont="0"/>
        <request index="6"  response="0011110000101111100000110" foes="0011110000101111100000110" cont="0"/>
        <request index="7"  response="0000000000000000000000000" foes="0010000000100000000000100" cont="0"/>
        <request index="8"  response="0000000000000000000000000" foes="0010000011100000001111100" cont="0"/>
        <request index="9"  response="0000000000000000000000000" foes="1110000111100000001110011" cont="0"/>
        <request index="10" response="0000000000000000000000000" foes="1110000111100000001110011" cont="0"/>
        <request index="11" response="0000000000000000000000000" foes="1110000111100000001110011" cont="0"/>
        <request index="12" response="0001111000000000000000000" foes="0001111111100000001100011" cont="1"/>
        <request index="13" response="0001110000000000000000000" foes="0001110000000000000000000" cont="0"/>
        <request index="14" response="0011110000001111110000000" foes="0011110000001111111000110" cont="0"/>
        <request index="15" response="0111110000001111100111000" foes="0111110000001111100111110" cont="0"/>
        <request index="16" response="0111110000001111100111000" foes="0111110000001111100111110" cont="0"/>
        <request index="17" response="0111110000001111000100001" foes="0111110000001111000100001" cont="0"/>
        <request index="18" response="0000000000000000000000000" foes="0000000000001000000100001" cont="0"/>
        <request index="19" response="0000000000000000000000000" foes="0000000111111000001100011" cont="0"/>
        <request index="20" response="0000000000000000000000000" foes="0000000111111000001100011" cont="0"/>
        <request index="21" response="0000000000000000000000000" foes="0000000111111000001100011" cont="0"/>
        <request index="22" response="0000000000000111110000000" foes="0000000111100111111100111" cont="1"/>
        <request index="23" response="0000000000000111000000000" foes="0000000111000111000010111" cont="1"/>
        <request index="24" response="0000000000000111000000000" foes="0000000000000111000010000" cont="0"/>
    </junction>

    <junction id=":clusterJ11_J12_J16_J17_#7more_25_0" type="internal" x="8.81" y="19.71" incLanes=":clusterJ11_J12_J16_J17_#7more_12_0 E1_0 E1_1 E1_2" intLanes=":clusterJ11_J12_J16_J17_#7more_0_0 :clusterJ11_J12_J16_J17_#7more_1_0 :clusterJ11_J12_J16_J17_#7more_5_0 :clusterJ11_J12_J16_J17_#7more_6_0 :clusterJ11_J12_J16_J17_#7more_14_0 :clusterJ11_J12_J16_J17_#7more_15_0 :clusterJ11_J12_J16_J17_#7more_15_1 :clusterJ11_J12_J16_J17_#7more_17_0 :clusterJ11_J12_J16_J17_#7more_18_0 :clusterJ11_J12_J16_J17_#7more_19_0 :clusterJ11_J12_J16_J17_#7more_19_1 :clusterJ11_J12_J16_J17_#7more_19_2"/>
    <junction id=":clusterJ11_J12_J16_J17_#7more_26_0" type="internal" x="1.66" y="-10.43" incLanes=":clusterJ11_J12_J16_J17_#7more_22_0 E9_0 E9_1 E9_2 E9_3" intLanes=":clusterJ11_J12_J16_J17_#7more_0_0 :clusterJ11_J12_J16_J17_#7more_1_0 :clusterJ11_J12_J16_J17_#7more_2_0 :clusterJ11_J12_J16_J17_#7more_5_0 :clusterJ11_J12_J16_J17_#7more_6_0 :clusterJ11_J12_J16_J17_#7more_7_0 :clusterJ11_J12_J16_J17_#7more_8_0 :clusterJ11_J12_J16_J17_#7more_9_0 :clusterJ11_J12_J16_J17_#7more_9_1 :clusterJ11_J12_J16_J17_#7more_9_2 :clusterJ11_J12_J16_J17_#7more_14_0 :clusterJ11_J12_J16_J17_#7more_15_0 :clusterJ11_J12_J16_J17_#7more_15_1 :clusterJ11_J12_J16_J17_#7more_17_0"/>
    <junction id=":clusterJ11_J12_J16_J17_#7more_27_0" type="internal" x="-1.56" y="-21.91" incLanes=":clusterJ11_J12_J16_J17_#7more_23_0 E9_0 E9_1 E9_2 E9_3" intLanes=":clusterJ11_J12_J16_J17_#7more_0_0 :clusterJ11_J12_J16_J17_#7more_1_0 :clusterJ11_J12_J16_J17_#7more_2_0 :clusterJ11_J12_J16_J17_#7more_3_0 :clusterJ11_J12_J16_J17_#7more_4_0 :clusterJ11_J12_J16_J17_#7more_8_0 :clusterJ11_J12_J16_J17_#7more_9_0 :clusterJ11_J12_J16_J17_#7more_9_1 :clusterJ11_J12_J16_J17_#7more_9_2 :clusterJ11_J12_J16_J17_#7more_15_0 :clusterJ11_J12_J16_J17_#7more_15_1 :clusterJ11_J12_J16_J17_#7more_17_0"/>

    <connection from="E0" to="E1" fromLane="0" toLane="0" via=":J4_0_0" dir="s" state="M"/>
    <connection from="E0" to="E1" fromLane="1" toLane="1" via=":J4_0_1" dir="s" state="M"/>
    <connection from="E0" to="E1" fromLane="2" toLane="2" via=":J4_0_2" dir="s" state="M"/>
    <connection from="E0" to="E1" fromLane="2" toLane="3" via=":J4_0_3" dir="s" state="M"/>
    <connection from="E1" to="E5" fromLane="0" toLane="0" via=":clusterJ11_J12_J16_J17_#7more_18_0" tl="clusterJ11_J12_J16_J17_#7more" linkIndex="18" dir="l" state="O"/>
    <connection from="E1" to="E10" fromLane="0" toLane="0" via=":clusterJ11_J12_J16_J17_#7more_19_0" tl="clusterJ11_J12_J16_J17_#7more" linkIndex="19" dir="s" state="O"/>
    <connection from="E1" to="E10" fromLane="1" toLane="1" via=":clusterJ11_J12_J16_J17_#7more_19_1" tl="clusterJ11_J12_J16_J17_#7more" linkIndex="20" dir="s" state="O"/>
    <connection from="E1" to="E10" fromLane="2" toLane="2" via=":clusterJ11_J12_J16_J17_#7more_19_2" tl="clusterJ11_J12_J16_J17_#7more" linkIndex="21" dir="s" state="O"/>
    <connection from="E1" to="E7" fromLane="2" toLane="0" via=":clusterJ11_J12_J16_J17_#7more_22_0" tl="clusterJ11_J12_J16_J17_#7more" linkIndex="22" dir="R" state="o"/>