<?xml version="1.0" encoding="UTF-8"?>

<!-- generated on 2025-01-06 09:16:13 by Eclipse SUMO netedit Version 1.20.0
<configuration xmlns:xsi="http://www.w3.org/2001/XMLSchema-instance" xsi:noNamespaceSchemaLocation="http://sumo.dlr.de/xsd/neteditConfiguration.xsd">

    <input>
        <sumo-net-file value="/Users/chashu/Desktop/dev/sumorl-venv/app/data/ehira/ehira.net.xml"/>
    </input>

    <output>
        <output-file value="/Users/chashu/Desktop/dev/sumorl-venv/app/data/ehira/ehira.net.xml"/>
    </output>

    <processing>
        <geometry.min-radius.fix.railways value="false"/>
        <geometry.max-grade.fix value="false"/>
        <offset.disable-normalization value="true"/>
        <lefthand value="1"/>
    </processing>

    <junctions>
        <no-turnarounds value="true"/>
        <junctions.corner-detail value="5"/>
        <junctions.limit-turn-speed value="5.50"/>
        <rectangular-lane-cut value="0"/>
    </junctions>

    <pedestrian>
        <walkingareas value="0"/>
    </pedestrian>

</configuration>
-->

<net version="1.20" junctionCornerDetail="5" lefthand="true" limitTurnSpeed="5.50" xmlns:xsi="http://www.w3.org/2001/XMLSchema-instance" xsi:noNamespaceSchemaLocation="http://sumo.dlr.de/xsd/net_file.xsd">

    <location netOffset="0.00,0.00" convBoundary="-134.27,-129.60,135.02,135.74" origBoundary="-10000000000.00,-10000000000.00,10000000000.00,10000000000.00" projParameter="!"/>

    <edge id=":n0_0" function="internal">
        <lane id=":n0_0_0" index="0" disallow="pedestrian" speed="13.89" length="15.22" shape="34.44,70.32 33.68,65.85 33.73,62.69 33.75,59.53 32.91,55.08"/>
        <lane id=":n0_0_1" index="1" disallow="pedestrian" speed="13.89" length="15.22" shape="34.44,70.32 29.83,55.94"/>
        <lane id=":n0_0_2" index="2" disallow="pedestrian" speed="13.89" length="15.22" shape="31.35,71.12 26.74,56.81"/>
        <lane id=":n0_0_3" index="3" disallow="pedestrian" speed="13.89" length="15.22" shape="28.25,71.93 23.66,57.67"/>
        <lane id=":n0_0_4" index="4" disallow="pedestrian" speed="13.89" length="15.22" shape="28.25,71.93 26.53,67.73 24.47,65.21 22.38,62.71 20.58,58.53"/>
    </edge>
    <edge id=":se0_0" function="internal">
        <lane id=":se0_0_0" index="0" disallow="pedestrian" speed="13.89" length="21.54" shape="42.83,-65.61 38.95,-59.97 35.08,-55.68 31.69,-52.20 29.22,-48.99"/>
    </edge>
    <edge id=":se0_1" function="internal">
        <lane id=":se0_1_0" index="0" disallow="pedestrian" speed="13.89" length="21.29" shape="42.83,-65.61 32.32,-47.21"/>
        <lane id=":se0_1_1" index="1" disallow="pedestrian" speed="13.89" length="21.29" shape="45.60,-64.01 35.09,-45.62"/>
        <lane id=":se0_1_2" index="2" disallow="pedestrian" speed="13.89" length="21.29" shape="45.60,-64.01 43.03,-58.55 41.84,-54.27 40.60,-49.87 37.87,-44.03"/>
    </edge>
    <edge id=":sw0_0" function="internal">
        <lane id=":sw0_0_0" index="0" disallow="pedestrian" speed="13.89" length="7.16" shape="-24.14,-74.29 -22.54,-67.52"/>
        <lane id=":sw0_0_1" index="1" disallow="pedestrian" speed="13.89" length="7.16" shape="-21.02,-74.98 -19.42,-68.24"/>
        <lane id=":sw0_0_2" index="2" disallow="pedestrian" speed="13.89" length="7.16" shape="-17.89,-75.67 -16.30,-68.95"/>
        <lane id=":sw0_0_3" index="3" disallow="pedestrian" speed="13.89" length="7.16" shape="-17.89,-75.67 -16.91,-73.69 -15.53,-72.67 -14.16,-71.65 -13.18,-69.67"/>
    </edge>
    <edge id=":sw1_0" function="internal">
        <lane id=":sw1_0_0" index="0" disallow="pedestrian" speed="6.60" length="7.80" shape="10.12,-28.52 8.32,-28.81 6.86,-29.74 5.76,-31.31 5.01,-33.51"/>
    </edge>
    <edge id=":sw1_1" function="internal">
        <lane id=":sw1_1_0" index="0" disallow="pedestrian" speed="13.89" length="3.44" shape="2.68,-29.52 1.90,-32.76"/>
        <lane id=":sw1_1_1" index="1" disallow="pedestrian" speed="13.89" length="3.44" shape="-0.38,-28.55 -1.21,-32.00"/>
    </edge>
    <edge id=":ts_0" function="internal">
        <lane id=":ts_0_0" index="0" disallow="pedestrian" speed="13.89" length="54.47" shape="21.05,-27.26 13.29,-16.68 3.29,-8.48 -8.95,-2.66 -23.41,0.77"/>
    </edge>
    <edge id=":ts_1" function="internal">
        <lane id=":ts_1_0" index="0" disallow="pedestrian" speed="13.89" length="60.11" shape="21.05,-27.26 14.43,-15.01 7.36,0.27 2.42,15.82 2.21,28.85"/>
        <lane id=":ts_1_1" index="1" disallow="pedestrian" speed="13.89" length="57.74" shape="23.84,-25.68 17.26,-13.82 10.29,0.64 5.46,15.35 5.30,27.99"/>
        <lane id=":ts_1_2" index="2" disallow="pedestrian" speed="13.89" length="55.98" shape="23.84,-25.68 17.74,-13.95 11.83,0.21 8.06,14.63 8.38,27.14"/>
    </edge>
    <edge id=":ts_4" function="internal">
        <lane id=":ts_4_0" index="0" disallow="pedestrian" speed="10.82" length="12.66" shape="26.62,-24.10 22.07,-14.17 21.81,-12.45"/>
    </edge>
    <edge id=":ts_25" function="internal">
        <lane id=":ts_25_0" index="0" disallow="pedestrian" speed="10.82" length="23.04" shape="21.81,-12.45 20.78,-5.58 23.89,0.67 32.51,3.60"/>
    </edge>
    <edge id=":ts_5" function="internal">
        <lane id=":ts_5_0" index="0" disallow="pedestrian" speed="8.71" length="22.63" shape="33.08,-2.41 28.96,-3.92 27.44,-7.50 28.53,-13.17 32.22,-20.92"/>
    </edge>
    <edge id=":ts_6" function="internal">
        <lane id=":ts_6_0" index="0" disallow="pedestrian" speed="13.89" length="40.34" shape="33.08,-2.41 22.15,-4.64 13.61,-9.26 7.43,-16.27 3.63,-25.67"/>
    </edge>
    <edge id=":ts_7" function="internal">
        <lane id=":ts_7_0" index="0" disallow="pedestrian" speed="13.89" length="56.59" shape="33.08,-2.41 22.84,-2.20 4.82,-1.25 -13.20,-0.09 -23.41,0.77"/>
    </edge>
    <edge id=":ts_8" function="internal">
        <lane id=":ts_8_0" index="0" disallow="pedestrian" speed="12.77" length="19.80" shape="33.08,-2.41 19.42,-1.46 14.21,1.73"/>
    </edge>
    <edge id=":ts_26" function="internal">
        <lane id=":ts_26_0" index="0" disallow="pedestrian" speed="12.77" length="28.24" shape="14.21,1.73 10.58,3.95 6.82,13.57 8.38,27.14"/>
    </edge>
    <edge id=":ts_9" function="internal">
        <lane id=":ts_9_0" index="0" disallow="pedestrian" speed="9.50" length="25.96" shape="23.87,22.75 22.28,13.94 23.19,7.81 26.60,4.37 32.51,3.60"/>
    </edge>
    <edge id=":ts_10" function="internal">
        <lane id=":ts_10_0" index="0" disallow="pedestrian" speed="13.89" length="45.59" shape="23.87,22.75 22.36,12.75 23.24,2.13 26.53,-9.09 32.22,-20.92"/>
        <lane id=":ts_10_1" index="1" disallow="pedestrian" speed="13.89" length="48.11" shape="20.79,23.61 19.16,12.98 20.06,1.74 23.49,-10.08 29.44,-22.50"/>
    </edge>
    <edge id=":ts_12" function="internal">
        <lane id=":ts_12_0" index="0" disallow="pedestrian" speed="13.89" length="52.13" shape="17.70,24.48 3.63,-25.67"/>
        <lane id=":ts_12_1" index="1" disallow="pedestrian" speed="13.89" length="52.13" shape="14.62,25.34 0.52,-24.90"/>
    </edge>
    <edge id=":ts_14" function="internal">
        <lane id=":ts_14_0" index="0" disallow="pedestrian" speed="13.89" length="6.62" shape="11.54,26.20 8.99,20.09"/>
    </edge>
    <edge id=":ts_27" function="internal">
        <lane id=":ts_27_0" index="0" disallow="pedestrian" speed="13.89" length="41.35" shape="8.99,20.09 6.29,13.63 -1.29,5.20 -11.19,0.92 -23.41,0.77"/>
    </edge>
    <edge id=":ts_15" function="internal">
        <lane id=":ts_15_0" index="0" disallow="pedestrian" speed="13.15" length="36.21" shape="-22.48,7.31 -14.20,7.67 -7.32,11.38 -1.85,18.44 2.21,28.85"/>
    </edge>
    <edge id=":ts_16" function="internal">
        <lane id=":ts_16_0" index="0" disallow="pedestrian" speed="13.89" length="55.13" shape="-22.48,7.31 -10.41,6.06 6.86,4.76 23.21,3.81 32.51,3.60"/>
    </edge>
    <edge id=":ts_17" function="internal">
        <lane id=":ts_17_0" index="0" disallow="pedestrian" speed="13.89" length="7.38" shape="-22.93,4.14 -15.71,2.62"/>
    </edge>
    <edge id=":ts_18" function="internal">
        <lane id=":ts_18_0" index="0" disallow="pedestrian" speed="13.40" length="6.50" shape="-22.93,4.14 -16.59,2.69"/>
    </edge>
    <edge id=":ts_28" function="internal">
        <lane id=":ts_28_0" index="0" disallow="pedestrian" speed="13.89" length="53.26" shape="-15.71,2.62 -4.43,0.25 10.47,-5.48 21.76,-13.07 29.44,-22.50"/>
    </edge>
    <edge id=":ts_29" function="internal">
        <lane id=":ts_29_0" index="0" disallow="pedestrian" speed="13.40" length="38.30" shape="-16.59,2.69 -9.91,1.17 -1.64,-3.95 1.84,-12.29 0.52,-24.90"/>
    </edge>
    <edge id=":ts_19" function="internal">
        <lane id=":ts_19_0" index="0" disallow="pedestrian" speed="10.95" length="29.25" shape="-12.02,-21.80 -10.99,-12.79 -12.54,-6.03 -16.68,-1.51 -23.41,0.77"/>
    </edge>
    <edge id=":ts_20" function="internal">
        <lane id=":ts_20_0" index="0" disallow="pedestrian" speed="13.89" length="52.52" shape="-12.02,-21.80 2.21,28.85"/>
        <lane id=":ts_20_1" index="1" disallow="pedestrian" speed="13.89" length="52.52" shape="-8.92,-22.57 5.30,27.99"/>
        <lane id=":ts_20_2" index="2" disallow="pedestrian" speed="13.89" length="52.52" shape="-5.81,-23.34 8.38,27.14"/>
    </edge>
    <edge id=":ts_23" function="internal">
        <lane id=":ts_23_0" index="0" disallow="pedestrian" speed="13.89" length="33.33" shape="-2.70,-24.10 1.68,-12.87 9.01,-4.51 17.97,0.28"/>
    </edge>
    <edge id=":ts_24" function="internal">
        <lane id=":ts_24_0" index="0" disallow="pedestrian" speed="10.69" length="36.26" shape="-2.70,-24.10 2.77,-14.32 11.56,-10.94 21.26,-13.74 25.03,-17.78"/>
    </edge>
    <edge id=":ts_30" function="internal">
        <lane id=":ts_30_0" index="0" disallow="pedestrian" speed="13.89" length="14.98" shape="17.97,0.28 19.29,0.98 32.51,3.60"/>
    </edge>
    <edge id=":ts_31" function="internal">
        <lane id=":ts_31_0" index="0" disallow="pedestrian" speed="10.69" length="6.45" shape="25.03,-17.78 29.44,-22.50"/>
    </edge>
    <edge id=":w0_0" function="internal">
        <lane id=":w0_0_0" index="0" disallow="pedestrian" speed="13.89" length="8.37" shape="-124.01,21.98 -116.07,20.96"/>
        <lane id=":w0_0_1" index="1" disallow="pedestrian" speed="13.89" length="8.37" shape="-124.01,21.98 -121.64,21.18 -120.27,19.91 -118.89,18.63 -116.53,17.79"/>
    </edge>

    <edge id="e0_ts" from="e0" to="ts" priority="-1" shape="135.02,7.86 32.94,-0.82">
        <lane id="e0_ts_0" index="0" disallow="pedestrian" speed="13.89" length="102.45" shape="135.16,6.27 33.08,-2.41"/>
    </edge>
    <edge id="n01_n0" from="n01" to="n0" priority="-1" shape="42.92,134.86 26.70,72.33">
        <lane id="n01_n0_0" index="0" disallow="pedestrian" speed="13.89" length="64.60" shape="50.66,132.85 34.44,70.32"/>
        <lane id="n01_n0_1" index="1" disallow="pedestrian" speed="13.89" length="64.60" shape="47.57,133.65 31.35,71.12"/>
        <lane id="n01_n0_2" index="2" disallow="pedestrian" speed="13.89" length="64.60" shape="44.47,134.46 28.25,71.93"/>
    </edge>
    <edge id="n0_ts" from="n0" to="ts" priority="-1" shape="19.04,58.96 10.00,26.63">
        <lane id="n0_ts_0" index="0" disallow="pedestrian" speed="13.89" length="33.57" shape="32.91,55.08 23.87,22.75"/>
        <lane id="n0_ts_1" index="1" disallow="pedestrian" speed="13.89" length="33.57" shape="29.83,55.94 20.79,23.61"/>
        <lane id="n0_ts_2" index="2" disallow="pedestrian" speed="13.89" length="33.57" shape="26.74,56.81 17.70,24.48"/>
        <lane id="n0_ts_3" index="3" disallow="pedestrian" speed="13.89" length="33.57" shape="23.66,57.67 14.62,25.34"/>
        <lane id="n0_ts_4" index="4" disallow="pedestrian" speed="13.89" length="33.57" shape="20.58,58.53 11.54,26.20"/>
    </edge>
    <edge id="se01_se0" from="se01" to="se0" priority="-1" shape="85.32,-129.60 46.99,-63.21">
        <lane id="se01_se0_0" index="0" disallow="pedestrian" speed="13.89" length="76.66" shape="81.16,-132.00 42.83,-65.61"/>
        <lane id="se01_se0_1" index="1" disallow="pedestrian" speed="13.89" length="76.66" shape="83.93,-130.40 45.60,-64.01"/>
    </edge>
    <edge id="se0_sw1" from="se0" to="sw1" priority="-1" shape="30.61,-48.19 26.80,-41.54 21.83,-31.99 18.65,-28.43 13.63,-26.96 10.24,-26.92">
        <lane id="se0_sw1_0" index="0" disallow="pedestrian" speed="13.89" length="30.23" shape="29.22,-48.99 25.40,-42.31 20.50,-32.91 17.76,-29.84 13.39,-28.56 10.12,-28.52"/>
    </edge>
    <edge id="se0_ts" from="se0" to="ts" priority="-1" shape="39.96,-44.48 28.02,-23.33">
        <lane id="se0_ts_0" index="0" disallow="pedestrian" speed="13.89" length="22.90" shape="32.32,-47.21 21.05,-27.26"/>
        <lane id="se0_ts_1" index="1" disallow="pedestrian" speed="13.89" length="22.90" shape="35.09,-45.62 23.84,-25.68"/>
        <lane id="se0_ts_2" index="2" disallow="pedestrian" speed="13.89" length="22.90" shape="37.87,-44.03 26.62,-24.10"/>
    </edge>
    <edge id="sw01_sw0" from="sw01" to="sw0" priority="-1" shape="-27.25,-122.93 -16.37,-76.18">
        <lane id="sw01_sw0_0" index="0" disallow="pedestrian" speed="13.89" length="48.11" shape="-35.04,-121.12 -24.14,-74.29"/>
        <lane id="sw01_sw0_1" index="1" disallow="pedestrian" speed="13.89" length="48.11" shape="-31.93,-121.84 -21.02,-74.98"/>
        <lane id="sw01_sw0_2" index="2" disallow="pedestrian" speed="13.89" length="48.11" shape="-28.81,-122.57 -17.89,-75.67"/>
    </edge>
    <edge id="sw0_ts" from="sw0" to="ts" priority="-1" shape="-11.62,-70.03 -1.62,-26.54">
        <lane id="sw0_ts_0" index="0" disallow="pedestrian" speed="13.89" length="46.83" shape="-22.54,-67.52 -12.02,-21.80"/>
        <lane id="sw0_ts_1" index="1" disallow="pedestrian" speed="13.89" length="46.83" shape="-19.42,-68.24 -8.92,-22.57"/>
        <lane id="sw0_ts_2" index="2" disallow="pedestrian" speed="13.89" length="46.83" shape="-16.30,-68.95 -5.81,-23.34"/>
        <lane id="sw0_ts_3" index="3" disallow="pedestrian" speed="13.89" length="46.83" shape="-13.18,-69.67 -2.70,-24.10"/>
    </edge>
    <edge id="sw1_sw11" from="sw1" to="sw11" priority="-1" shape="-4.31,-38.37 -23.84,-123.84">
        <lane id="sw1_sw11_0" index="0" disallow="pedestrian" speed="13.89" length="94.53" shape="5.01,-33.51 -16.04,-125.62"/>
        <lane id="sw1_sw11_1" index="1" disallow="pedestrian" speed="13.89" length="94.53" shape="1.90,-32.76 -19.16,-124.91"/>
        <lane id="sw1_sw11_2" index="2" disallow="pedestrian" speed="13.89" length="94.53" shape="-1.21,-32.00 -22.28,-124.20"/>
    </edge>
    <edge id="ts_e1" from="ts" to="e1" priority="-1" shape="32.64,2.01 132.41,10.06">
        <lane id="ts_e1_0" index="0" disallow="pedestrian" speed="13.89" length="100.09" shape="32.51,3.60 132.28,11.65"/>
    </edge>
    <edge id="ts_n1" from="ts" to="n1" priority="-1" shape="9.92,26.71 40.25,135.74">
        <lane id="ts_n1_0" index="0" disallow="pedestrian" speed="13.89" length="113.17" shape="2.21,28.85 32.54,137.88"/>
        <lane id="ts_n1_1" index="1" disallow="pedestrian" speed="13.89" length="113.17" shape="5.30,27.99 35.63,137.03"/>
        <lane id="ts_n1_2" index="2" disallow="pedestrian" speed="13.89" length="113.17" shape="8.38,27.14 38.71,136.17"/>
    </edge>
    <edge id="ts_se1" from="ts" to="se1" priority="-1" shape="28.05,-23.29 88.38,-129.54">
        <lane id="ts_se1_0" index="0" disallow="pedestrian" speed="13.89" length="122.18" shape="32.22,-20.92 92.55,-127.17"/>
        <lane id="ts_se1_1" index="1" disallow="pedestrian" speed="13.89" length="122.18" shape="29.44,-22.50 89.77,-128.75"/>
    </edge>
    <edge id="ts_sw1" from="ts" to="sw1" priority="-1" shape="-1.03,-24.52 -1.98,-28.37">
        <lane id="ts_sw1_0" index="0" disallow="pedestrian" speed="13.89" length="3.86" shape="3.63,-25.67 2.68,-29.52"/>
        <lane id="ts_sw1_1" index="1" disallow="pedestrian" speed="13.89" length="3.86" shape="0.52,-24.90 -0.38,-28.55"/>
    </edge>
    <edge id="ts_w1" from="ts" to="w1" priority="-1" shape="-23.19,2.35 -134.13,18.26">
        <lane id="ts_w1_0" index="0" disallow="pedestrian" speed="13.89" length="112.08" shape="-23.41,0.77 -134.36,16.68"/>
    </edge>
    <edge id="w01_w0" from="w01" to="w0" priority="-1" shape="-134.27,21.69 -122.28,20.14">
        <lane id="w01_w0_0" index="0" speed="13.89" length="9.99" shape="-133.91,23.26 -124.01,21.98"/>
    </edge>
    <edge id="w0_ts" from="w0" to="ts" priority="-1" shape="-118.68,16.49 -23.26,2.57">
        <lane id="w0_ts_0" index="0" disallow="pedestrian" speed="13.89" length="94.59" shape="-116.07,20.96 -22.48,7.31"/>
        <lane id="w0_ts_1" index="1" disallow="pedestrian" speed="13.89" length="94.59" shape="-116.53,17.79 -22.93,4.14"/>
    </edge>

    <tlLogic id="tl" type="static" programID="0" offset="0">
        <phase duration="33.60" state="rrrrrrrrrrrrGGgrrrrGGGGrr" name="split1"/>
        <phase duration="4"  state="rrrrrrrrrrrryyyrrrryyyyrr"/>
        <phase duration="6"  state="rrrrrrrrrrrrrrrrrrrrrrrrr"/>
        <phase duration="10.80" state="rrrrrrrrrGGGrrgrrrrGrrrgg" name="split2"/>
        <phase duration="4"  state="rrrrrrrrryyyrryrrrryrrryy"/>
        <phase duration="6"  state="rrrrrrrrrrrrrrrrrrrrrrrrr"/>
        <phase duration="20.40" state="GGGGgrrrrGGGrrgrrrrrrrrrr" name="split3"/>
        <phase duration="4"  state="yyyyyrrrryyyrryrrrrrrrrrr"/>
        <phase duration="6"  state="rrrrrrrrrrrrrrrrrrrrrrrrr"/>
        <phase duration="10.80" state="GGGGgrrrrrrrrrrrrrrrrrrrr" name="split4"/>
        <phase duration="4"  state="yyyyyrrrrrrrrrrrrrrrrrrrr"/>
        <phase duration="6"  state="rrrrrrrrrrrrrrrrrrrrrrrrr"/>
        <phase duration="33.60" state="rrrrrGGGgrrrrrrGGggrrrrrr" name="split5"/>
        <phase duration="4"  state="rrrrryyyyrrrrrryyyyrrrrrr"/>
        <phase duration="6"  state="rrrrrrrrrrrrrrrrrrrrrrrrr"/>
        <phase duration="10.80" state="rrrrrrrrrrrrrrrGGGGrrrrrr" name="split6"/>
        <phase duration="4"  state="rrrrrrrrrrrrrrryyyyrrrrrr"/>
        <phase duration="6"  state="rrrrrrrrrrrrrrrrrrrrrrrrr"/>
    </tlLogic>

    <junction id="e0" type="dead_end" x="135.02" y="7.86" incLanes="" intLanes="" shape="135.02,7.86 135.29,4.67"/>
    <junction id="e1" type="dead_end" x="132.41" y="10.06" incLanes="ts_e1_0" intLanes="" shape="132.15,13.25 132.41,10.06"/>
    <junction id="n0" type="priority" x="31.06" y="70.34" incLanes="n01_n0_0 n01_n0_1 n01_n0_2" intLanes=":n0_0_0 :n0_0_1 :n0_0_2 :n0_0_3 :n0_0_4" shape="35.99,69.92 26.70,72.33 25.60,69.27 24.32,67.20 22.92,65.63 21.52,64.07 20.19,62.01 19.04,58.96 34.45,54.65 35.15,57.83 35.34,60.24 35.27,62.27 35.20,64.30 35.35,66.72">
        <request index="0" response="00000" foes="00000" cont="0"/>
        <request index="1" response="00000" foes="00000" cont="0"/>
        <request index="2" response="00000" foes="00000" cont="0"/>
        <request index="3" response="00000" foes="00000" cont="0"/>
        <request index="4" response="00000" foes="00000" cont="0"/>
    </junction>
    <junction id="n01" type="dead_end" x="42.92" y="134.86" incLanes="" intLanes="" shape="42.92,134.86 52.21,132.45"/>
    <junction id="n1" type="dead_end" x="40.25" y="135.74" incLanes="ts_n1_0 ts_n1_1 ts_n1_2" intLanes="" shape="31.00,138.31 40.25,135.74"/>
    <junction id="se0" type="priority" x="46.90" y="-64.08" incLanes="se01_se0_0 se01_se0_1" intLanes=":se0_0_0 :se0_1_0 :se0_1_1 :se0_1_2" shape="41.45,-66.41 46.99,-63.21 44.92,-59.16 43.78,-55.98 43.09,-53.24 42.41,-50.50 41.29,-47.31 39.26,-43.24 27.83,-49.78 30.32,-53.60 32.54,-56.17 34.63,-58.10 36.72,-60.03 38.94,-62.59">
        <request index="0" response="0000" foes="0000" cont="0"/>
        <request index="1" response="0000" foes="0000" cont="0"/>
        <request index="2" response="0000" foes="0000" cont="0"/>
        <request index="3" response="0000" foes="0000" cont="0"/>
    </junction>
    <junction id="se01" type="dead_end" x="85.32" y="-129.60" incLanes="" intLanes="" shape="85.32,-129.60 79.78,-132.80"/>
    <junction id="se1" type="dead_end" x="88.38" y="-129.54" incLanes="ts_se1_0 ts_se1_1" intLanes="" shape="93.95,-126.38 88.38,-129.54"/>
    <junction id="sw0" type="priority" x="-19.91" y="-88.35" incLanes="sw01_sw0_0 sw01_sw0_1 sw01_sw0_2" intLanes=":sw0_0_0 :sw0_0_1 :sw0_0_2 :sw0_0_3" shape="-11.62,-70.03 -24.09,-67.16 -25.70,-73.95 -16.26,-76.03 -14.64,-74.65 -12.57,-74.34" customShape="1">
        <request index="0" response="0000" foes="0000" cont="0"/>
        <request index="1" response="0000" foes="0000" cont="0"/>
        <request index="2" response="0000" foes="0000" cont="0"/>
        <request index="3" response="0000" foes="0000" cont="0"/>
    </junction>
    <junction id="sw01" type="dead_end" x="-27.25" y="-122.93" incLanes="" intLanes="" shape="-27.25,-122.93 -36.60,-120.75"/>
    <junction id="sw1" type="priority" x="0.45" y="-32.98" incLanes="se0_sw1_0 ts_sw1_0 ts_sw1_1" intLanes=":sw1_0_0 :sw1_1_0 :sw1_1_1" shape="7.89,-31.28 10.12,-29.97 10.13,-26.95 6.67,-27.78 4.23,-29.86 -1.86,-28.13 -2.75,-31.63 6.85,-33.96" customShape="1">
        <request index="0" response="000" foes="000" cont="0"/>
        <request index="1" response="000" foes="000" cont="0"/>
        <request index="2" response="000" foes="000" cont="0"/>
    </junction>
    <junction id="sw11" type="dead_end" x="-23.84" y="-123.84" incLanes="sw1_sw11_0 sw1_sw11_1 sw1_sw11_2" intLanes="" shape="-14.48,-125.98 -23.84,-123.84"/>
    <junction id="ts" type="traffic_light" x="4.73" y="-15.10" incLanes="se0_ts_0 se0_ts_1 se0_ts_2 e0_ts_0 n0_ts_0 n0_ts_1 n0_ts_2 n0_ts_3 n0_ts_4 w0_ts_0 w0_ts_1 sw0_ts_0 sw0_ts_1 sw0_ts_2 sw0_ts_3" intLanes=":ts_0_0 :ts_1_0 :ts_1_1 :ts_1_2 :ts_25_0 :ts_5_0 :ts_6_0 :ts_7_0 :ts_26_0 :ts_9_0 :ts_10_0 :ts_10_1 :ts_12_0 :ts_12_1 :ts_27_0 :ts_15_0 :ts_16_0 :ts_28_0 :ts_29_0 :ts_19_0 :ts_20_0 :ts_20_1 :ts_20_2 :ts_30_0 :ts_31_0" shape="19.66,-28.05 33.62,-20.13 30.94,-14.95 30.13,-10.83 30.82,-7.82 33.31,-4.15 32.35,5.30 29.16,6.49 26.51,9.22 24.30,12.42 24.35,16.60 25.43,22.40 0.67,29.28 -1.73,22.38 -4.77,17.25 -8.16,13.88 -12.39,10.90 -16.79,9.73 -22.25,8.89 -23.64,-0.82 -20.11,-2.62 -17.04,-4.82 -15.34,-7.73 -13.90,-11.69 -13.25,-15.77 -13.58,-21.42 5.18,-26.05 6.65,-22.97 8.91,-21.50 11.66,-21.45 14.57,-22.64 17.34,-24.90" customShape="1">
        <request index="0"  response="1111111000111000010000000" foes="1111111000111000011000000" cont="0"/>
        <request index="1"  response="1111100111111000110000000" foes="1111100111111000111000000" cont="0"/>
        <request index="2"  response="1111100111111000110000000" foes="1111100111111000111000000" cont="0"/>
        <request index="3"  response="1111100111111000110000000" foes="1111100111111000111000000" cont="0"/>
        <request index="4"  response="1100000110000111110000000" foes="1100000110000111111000000" cont="1"/>
        <request index="5"  response="0000000000000110000000000" foes="0000000000000110000000000" cont="0"/>
        <request index="6"  response="1000000000011110000011111" foes="1000000100011110000011111" cont="0"/>
        <request index="7"  response="0111110000111110000010000" foes="0111111100111110000011111" cont="0"/>
        <request index="8"  response="0111100010111110000011110" foes="0111100010111110000011110" cont="1"/>
        <request index="9"  response="0000000000000000000000000" foes="0100000010000000000010000" cont="0"/>
        <request index="10" response="0000000100000000100000000" foes="1100000110000000111110000" cont="0"/>
        <request index="11" response="0000000100000000100000000" foes="1100000110000000111110000" cont="0"/>
        <request index="12" response="1100001100000000100000000" foes="1100001110000000111001111" cont="0"/>
        <request index="13" response="1100001100000000100000000" foes="1100001110000000111001111" cont="0"/>
        <request index="14" response="0011111100000000100000000" foes="0011111110000000110001111" cont="1"/>
        <request index="15" response="0011100000000000000000000" foes="0011100000000000000001110" cont="0"/>
        <request index="16" response="0111100000111111000010000" foes="0111100000111111100011110" cont="0"/>
        <request index="17" response="1111100000111110011010000" foes="1111100000111110011011110" cont="1"/>
        <request index="18" response="1111100000111000010000001" foes="1111100000111000010000001" cont="1"/>
        <request index="19" response="0000000000000000000000000" foes="0000000000100000010000001" cont="0"/>
        <request index="20" response="0000001100000000100000000" foes="0000001111100000110001111" cont="0"/>
        <request index="21" response="0000001100000000100000000" foes="0000001111100000110001111" cont="0"/>
        <request index="22" response="0000001100000000100000000" foes="0000001111100000110001111" cont="0"/>
        <request index="23" response="0000001100011111100010000" foes="0000001110011111110011111" cont="1"/>
        <request index="24" response="0000001100011110000010000" foes="0000001100011110001011111" cont="1"/>
    </junction>
    <junction id="w0" type="priority" x="-122.28" y="20.14" incLanes="w01_w0_0" intLanes=":w0_0_0 :w0_0_1" shape="-116.76,16.21 -115.84,22.54 -123.80,23.56 -124.21,20.39 -121.34,19.20 -120.48,18.33 -119.63,17.45 -118.49,16.70">
        <request index="0" response="00" foes="00" cont="0"/>
        <request index="1" response="00" foes="00" cont="0"/>
    </junction>
    <junction id="w01" type="dead_end" x="-133.99" y="22.67" incLanes="" intLanes="" shape="-134.12,21.67 -133.71,24.84"/>
    <junction id="w1" type="dead_end" x="-134.13" y="18.26" incLanes="ts_w1_0" intLanes="" shape="-134.58,15.09 -134.13,18.26"/>

    <junction id=":ts_25_0" type="internal" x="21.81" y="-12.45" incLanes=":ts_4_0 n0_ts_0 n0_ts_1" intLanes=":ts_6_0 :ts_7_0 :ts_8_0 :ts_9_0 :ts_10_0 :ts_10_1 :ts_16_0 :ts_17_0 :ts_23_0 :ts_24_0"/>
    <junction id=":ts_26_0" type="internal" x="14.21" y="1.73" incLanes=":ts_8_0 w0_ts_0" intLanes=":ts_1_0 :ts_1_1 :ts_1_2 :ts_4_0 :ts_10_0 :ts_10_1 :ts_12_0 :ts_12_1 :ts_14_0 :ts_15_0 :ts_16_0 :ts_20_0 :ts_20_1 :ts_20_2 :ts_23_0"/>
    <junction id=":ts_27_0" type="internal" x="8.99" y="20.09" incLanes=":ts_14_0 sw0_ts_0 sw0_ts_1 sw0_ts_2" intLanes=":ts_0_0 :ts_1_0 :ts_1_1 :ts_1_2 :ts_7_0 :ts_8_0 :ts_16_0 :ts_17_0 :ts_18_0 :ts_19_0 :ts_20_0 :ts_20_1 :ts_20_2"/>
    <junction id=":ts_28_0" type="internal" x="-15.71" y="2.62" incLanes=":ts_17_0 e0_ts_0" intLanes=":ts_1_0 :ts_1_1 :ts_1_2 :ts_4_0 :ts_5_0 :ts_6_0 :ts_7_0 :ts_10_0 :ts_10_1 :ts_12_0 :ts_12_1 :ts_14_0 :ts_20_0 :ts_20_1 :ts_20_2 :ts_23_0 :ts_24_0"/>
    <junction id=":ts_29_0" type="internal" x="-16.59" y="2.69" incLanes=":ts_18_0 e0_ts_0" intLanes=":ts_0_0 :ts_6_0 :ts_7_0 :ts_12_0 :ts_12_1 :ts_14_0 :ts_20_0 :ts_20_1 :ts_20_2 :ts_23_0 :ts_24_0"/>
    <junction id=":ts_30_0" type="internal" x="17.97" y="0.28" incLanes=":ts_23_0 n0_ts_0 n0_ts_1" intLanes=":ts_0_0 :ts_1_0 :ts_1_1 :ts_1_2 :ts_4_0 :ts_7_0 :ts_8_0 :ts_9_0 :ts_10_0 :ts_10_1 :ts_12_0 :ts_12_1 :ts_16_0 :ts_17_0 :ts_18_0"/>
    <junction id=":ts_31_0" type="internal" x="25.03" y="-17.78" incLanes=":ts_24_0 n0_ts_0 n0_ts_1" intLanes=":ts_0_0 :ts_1_0 :ts_1_1 :ts_1_2 :ts_4_0 :ts_5_0 :ts_6_0 :ts_10_0 :ts_10_1 :ts_12_0 :ts_12_1 :ts_17_0 :ts_18_0"/>

    <connection from="e0_ts" to="ts_se1" fromLane="0" toLane="0" via=":ts_5_0" tl="tl" linkIndex="5" dir="l" state="o"/>
    <connection from="e0_ts" to="ts_sw1" fromLane="0" toLane="0" via=":ts_6_0" tl="tl" linkIndex="6" dir="L" state="o"/>
    <connection from="e0_ts" to="ts_w1" fromLane="0" toLane="0" via=":ts_7_0" tl="tl" linkIndex="7" dir="s" state="o"/>
    <connection from="e0_ts" to="ts_n1" fromLane="0" toLane="2" via=":ts_8_0" tl="tl" linkIndex="8" dir="r" state="o"/>
    <connection from="n01_n0" to="n0_ts" fromLane="0" toLane="0" via=":n0_0_0" dir="s" state="M"/>
    <connection from="n01_n0" to="n0_ts" fromLane="0" toLane="1" via=":n0_0_1" dir="s" state="M"/>
    <connection from="n01_n0" to="n0_ts" fromLane="1" toLane="2" via=":n0_0_2" dir="s" state="M"/>
    <connection from="n01_n0" to="n0_ts" fromLane="2" toLane="3" via=":n0_0_3" dir="s" state="M"/>
    <connection from="n01_n0" to="n0_ts" fromLane="2" toLane="4" via=":n0_0_4" dir="s" state="M"/>
    <connection from="n0_ts" to="ts_e1" fromLane="0" toLane="0" via=":ts_9_0" tl="tl" linkIndex="9" dir="l" state="O"/>
    <connection from="n0_ts" to="ts_se1" fromLane="0" toLane="0" via=":ts_10_0" tl="tl" linkIndex="10" dir="L" state="O"/>
    <connection from="n0_ts" to="ts_se1" fromLane="1" toLane="1" via=":ts_10_1" tl="tl" linkIndex="11" dir="L" state="O"/>
    <connection from="n0_ts" to="ts_sw1" fromLane="2" toLane="0" via=":ts_12_0" tl="tl" linkIndex="12" dir="s" state="O"/>
    <connection from="n0_ts" to="ts_sw1" fromLane="3" toLane="1" via=":ts_12_1" tl="tl" linkIndex="13" dir="s" state="O"/>
    <connection from="n0_ts" to="ts_w1" fromLane="4" toLane="0" via=":ts_14_0" tl="tl" linkIndex="14" dir="r" state="o"/>
    <connection from="se01_se0" to="se0_sw1" fromLane="0" toLane="0" via=":se0_0_0" dir="s" state="M"/>
    <connection from="se01_se0" to="se0_ts" fromLane="0" toLane="0" via=":se0_1_0" dir="s" state="M"/>
    <connection from="se01_se0" to="se0_ts" fromLane="1" toLane="1" via=":se0_1_1" dir="s" state="M"/>
    <connection from="se01_se0" to="se0_ts" fromLane="1" toLane="2" via=":se0_1_2" dir="s" state="M"/>
    <connection from="se0_sw1" to="sw1_sw11" fromLane="0" toLane="0" via=":sw1_0_0" dir="l" state="M"/>
    <connection from="se0_ts" to="ts_w1" fromLane="0" toLane="0" via=":ts_0_0" tl="tl" linkIndex="0" dir="L" state="o"/>
    <connection from="se0_ts" to="ts_n1" fromLane="0" toLane="0" via=":ts_1_0" tl="tl" linkIndex="1" dir="R" state="o"/>
    <connection from="se0_ts" to="ts_n1" fromLane="1" toLane="1" via=":ts_1_1" tl="tl" linkIndex="2" dir="R" state="o"/>
    <connection from="se0_ts" to="ts_n1" fromLane="1" toLane="2" via=":ts_1_2" tl="tl" linkIndex="3" dir="R" state="o"/>