<?xml version="1.0" encoding="UTF-8"?>

<!-- generated on 2024-11-28 17:35:39 by Eclipse SUMO netedit Version 1.20.0
<configuration xmlns:xsi="http://www.w3.org/2001/XMLSchema-instance" xsi:noNamespaceSchemaLocation="http://sumo.dlr.de/xsd/neteditConfiguration.xsd">

    <input>
        <sumo-net-file value="/Users/chashu/Desktop/dev/sumorl-venv/app/data/ehira/ehira_ped.net.xml"/>
    </input>

    <output>
        <output-file value="/Users/chashu/Desktop/dev/sumorl-venv/app/data/ehira/ehira_ped.net.xml"/>
    </output>

    <processing>
        <geometry.min-radius.fix.railways value="false"/>
        <geometry.max-grade.fix value="false"/>
        <offset.disable-normalization value="true"/>
        <lefthand value="1"/>
    </processing>

    <junctions>
        <no-internal-links value="false"/>
        <no-turnarounds value="true"/>
        <junctions.corner-detail value="5"/>
        <junctions.limit-turn-speed value="5.50"/>
        <rectangular-lane-cut value="0"/>
    </junctions>

    <pedestrian>
        <walkingareas value="0"/>
    </pedestrian>

</configuration>
-->

<net version="1.20" junctionCornerDetail="5" lefthand="true" limitTurnSpeed="5.50" xmlns:xsi="http://www.w3.org/2001/XMLSchema-instance" xsi:noNamespaceSchemaLocation="http://sumo.dlr.de/xsd/net_file.xsd">

    <location netOffset="0.00,0.00" convBoundary="-134.27,-129.60,132.07,135.74" origBoundary="-10000000000.00,-10000000000.00,10000000000.00,10000000000.00" projParameter="!"/>

    <edge id=":n0_0" function="internal">
        <lane id=":n0_0_0" index="0" disallow="pedestrian" speed="13.89" length="15.31" shape="34.44,70.32 33.68,65.85 33.73,62.69 33.75,59.53 32.91,55.08"/>
        <lane id=":n0_0_1" index="1" disallow="pedestrian" speed="13.89" length="15.31" shape="31.35,71.12 30.59,66.67 30.64,63.52 30.66,60.38 29.83,55.94"/>
        <lane id=":n0_0_2" index="2" disallow="pedestrian" speed="13.89" length="15.31" shape="28.25,71.93 27.50,67.49 27.55,64.35 27.57,61.22 26.74,56.81"/>
        <lane id=":n0_0_3" index="3" disallow="pedestrian" speed="13.89" length="15.31" shape="28.25,71.93 23.66,57.67"/>
        <lane id=":n0_0_4" index="4" disallow="pedestrian" speed="13.89" length="15.31" shape="28.25,71.93 26.53,67.73 24.47,65.21 22.38,62.71 20.58,58.53"/>
    </edge>
    <edge id=":n0_w0" function="walkingarea">
        <lane id=":n0_w0_0" index="0" allow="pedestrian" speed="2.78" length="15.36" width="2.00" shape="34.45,54.65 36.38,54.11 37.08,57.30 37.27,59.72 37.20,61.75 37.13,63.79 37.29,66.21 37.93,69.42 35.99,69.92 35.35,66.72 35.20,64.30 35.27,62.27 35.34,60.24 35.15,57.83"/>
    </edge>
    <edge id=":se0_0" function="internal">
        <lane id=":se0_0_0" index="0" disallow="pedestrian" speed="13.89" length="21.57" shape="42.83,-65.61 39.14,-60.31 35.88,-57.06 32.69,-53.94 29.22,-48.99"/>
    </edge>
    <edge id=":se0_1" function="internal">
        <lane id=":se0_1_0" index="0" disallow="pedestrian" speed="13.89" length="21.29" shape="42.83,-65.61 32.32,-47.21"/>
        <lane id=":se0_1_1" index="1" disallow="pedestrian" speed="13.89" length="21.29" shape="45.60,-64.01 35.09,-45.62"/>
        <lane id=":se0_1_2" index="2" disallow="pedestrian" speed="13.89" length="21.29" shape="45.60,-64.01 42.88,-58.29 41.70,-54.04 40.55,-49.78 37.87,-44.03"/>
    </edge>
    <edge id=":se0_w0" function="walkingarea">
        <lane id=":se0_w0_0" index="0" allow="pedestrian" speed="2.78" length="21.49" width="2.00" shape="27.83,-49.78 26.10,-50.78 28.49,-54.42 30.73,-57.02 32.90,-59.10 35.07,-61.18 37.32,-63.77 39.72,-67.41 41.45,-66.41 38.94,-62.59 36.72,-60.03 34.63,-58.10 32.54,-56.17 30.32,-53.60"/>
    </edge>
    <edge id=":sw0_0" function="internal">
        <lane id=":sw0_0_0" index="0" disallow="pedestrian" speed="13.89" length="23.56" shape="-27.80,-90.38 -22.54,-67.52"/>
        <lane id=":sw0_0_1" index="1" disallow="pedestrian" speed="13.89" length="23.56" shape="-24.68,-91.12 -19.42,-68.24"/>
        <lane id=":sw0_0_2" index="2" disallow="pedestrian" speed="13.89" length="23.56" shape="-21.57,-91.85 -16.30,-68.95"/>
        <lane id=":sw0_0_3" index="3" disallow="pedestrian" speed="13.89" length="23.56" shape="-21.57,-91.85 -19.48,-85.14 -17.35,-80.77 -15.23,-76.39 -13.18,-69.67"/>
    </edge>
    <edge id=":sw0_w0" function="walkingarea">
        <lane id=":sw0_w0_0" index="0" allow="pedestrian" speed="2.78" length="23.45" width="2.00" shape="-24.09,-67.16 -26.04,-66.71 -31.30,-89.56 -29.35,-90.02"/>
    </edge>
    <edge id=":sw1_0" function="internal">
        <lane id=":sw1_0_0" index="0" disallow="pedestrian" speed="6.60" length="7.80" shape="10.12,-28.52 8.32,-28.81 6.86,-29.74 5.76,-31.31 5.01,-33.51"/>
    </edge>
    <edge id=":sw1_1" function="internal">
        <lane id=":sw1_1_0" index="0" disallow="pedestrian" speed="13.89" length="3.44" shape="2.68,-29.52 1.90,-32.76"/>
        <lane id=":sw1_1_1" index="1" disallow="pedestrian" speed="13.89" length="3.44" shape="-0.38,-28.55 -1.21,-32.00"/>
    </edge>
    <edge id=":sw1_c0" function="crossing" crossingEdges="se0_sw1">
        <lane id=":sw1_c0_0" index="0" allow="pedestrian" speed="2.78" length="6.09" width="4.00" customShape="1" shape="14.83,-26.71 13.62,-32.68" outlineShape="16.79,27.11 15.58,33.08 11.84,31.38 12.55,27.88 6.52,28.97 4.58,28.49 4.61,28.97 5.22,28.22 6.09,27.63 7.19,27.22 8.55,26.98 16.79,27.11"/>
    </edge>
    <edge id=":sw1_w0" function="walkingarea">
        <lane id=":sw1_w0_0" index="0" allow="pedestrian" speed="2.78" length="3.77" width="4.00" shape="7.25,-30.86 9.20,-31.30 8.19,-32.10 8.21,-30.10 15.58,-33.08 9.26,-30.21 8.52,-30.52 7.88,-31.04 7.34,-31.77 6.90,-32.71"/>
    </edge>
    <edge id=":sw1_w1" function="walkingarea">
        <lane id=":sw1_w1_0" index="0" allow="pedestrian" speed="2.78" length="9.50" width="4.00" shape="16.79,-27.11 6.52,-28.97 4.58,-28.49 4.61,-28.97 5.22,-28.22 6.09,-27.63 7.19,-27.22 8.55,-26.98"/>
    </edge>
    <edge id=":ts_0" function="internal">
        <lane id=":ts_0_0" index="0" disallow="pedestrian" speed="13.89" length="47.03" shape="21.05,-27.26 13.29,-16.68 3.29,-8.48 -8.95,-2.66 -16.17,-0.95"/>
    </edge>
    <edge id=":ts_1" function="internal">
        <lane id=":ts_1_0" index="0" disallow="pedestrian" speed="13.89" length="51.71" shape="21.05,-27.26 14.24,-15.69 6.86,-1.53 1.86,13.79 2.00,19.98"/>
        <lane id=":ts_1_1" index="1" disallow="pedestrian" speed="13.89" length="49.43" shape="23.84,-25.68 17.07,-14.49 9.79,-1.17 4.89,13.32 5.06,19.20"/>
        <lane id=":ts_1_2" index="2" disallow="pedestrian" speed="13.89" length="47.75" shape="23.84,-25.68 17.56,-14.63 11.33,-1.60 7.50,12.59 7.85,18.48"/>
    </edge>
    <edge id=":ts_4" function="internal">
        <lane id=":ts_4_0" index="0" disallow="pedestrian" speed="10.85" length="10.94" shape="26.62,-24.10 22.53,-14.26 22.52,-13.98"/>
    </edge>
    <edge id=":ts_26" function="internal">
        <lane id=":ts_26_0" index="0" disallow="pedestrian" speed="13.89" length="7.44" shape="-16.17,-0.95 -23.42,0.77"/>
    </edge>
    <edge id=":ts_27" function="internal">
        <lane id=":ts_27_0" index="0" disallow="pedestrian" speed="13.89" length="8.87" shape="2.00,19.98 2.21,28.85"/>
    </edge>
    <edge id=":ts_28" function="internal">
        <lane id=":ts_28_0" index="0" disallow="pedestrian" speed="13.89" length="8.80" shape="5.06,19.20 5.30,28.00"/>
    </edge>
    <edge id=":ts_29" function="internal">
        <lane id=":ts_29_0" index="0" disallow="pedestrian" speed="13.89" length="8.68" shape="7.85,18.48 8.38,27.14"/>
    </edge>
    <edge id=":ts_30" function="internal">
        <lane id=":ts_30_0" index="0" disallow="pedestrian" speed="10.85" length="24.93" shape="22.52,-13.98 22.29,-5.93 26.46,0.07 35.60,2.89"/>
    </edge>
    <edge id=":ts_5" function="internal">
        <lane id=":ts_5_0" index="0" disallow="pedestrian" speed="9.35" length="14.77" shape="35.87,-0.44 30.17,-2.16 27.66,-6.15 28.11,-10.23"/>
    </edge>
    <edge id=":ts_6" function="internal">
        <lane id=":ts_6_0" index="0" disallow="pedestrian" speed="13.89" length="38.03" shape="35.87,-0.44 23.90,-2.82 14.54,-7.83 7.78,-15.44 5.89,-20.10"/>
    </edge>
    <edge id=":ts_7" function="internal">
        <lane id=":ts_7_0" index="0" disallow="pedestrian" speed="13.89" length="59.34" shape="35.87,-0.44 23.80,-0.79 6.20,-0.67 -11.38,-0.13 -23.42,0.77"/>
    </edge>
    <edge id=":ts_8" function="internal">
        <lane id=":ts_8_0" index="0" disallow="pedestrian" speed="12.85" length="15.13" shape="35.87,-0.44 21.66,0.20 20.85,0.59"/>
    </edge>
    <edge id=":ts_31" function="internal">
        <lane id=":ts_31_0" index="0" disallow="pedestrian" speed="9.35" length="11.55" shape="28.11,-10.23 28.34,-12.40 32.22,-20.92"/>
    </edge>
    <edge id=":ts_32" function="internal">
        <lane id=":ts_32_0" index="0" disallow="pedestrian" speed="13.89" length="6.01" shape="5.89,-20.10 3.63,-25.67"/>
    </edge>
    <edge id=":ts_33" function="internal">
        <lane id=":ts_33_0" index="0" disallow="pedestrian" speed="12.85" length="33.41" shape="20.85,0.59 11.87,4.88 7.20,13.79 8.38,27.14"/>
    </edge>
    <edge id=":ts_9" function="internal">
        <lane id=":ts_9_0" index="0" disallow="pedestrian" speed="10.01" length="21.19" shape="23.87,22.75 22.37,13.52 23.82,7.13 27.94,3.83"/>
    </edge>
    <edge id=":ts_10" function="internal">
        <lane id=":ts_10_0" index="0" disallow="pedestrian" speed="13.89" length="34.38" shape="23.87,22.75 22.36,12.75 23.24,2.13 26.53,-9.09 27.36,-10.81"/>
        <lane id=":ts_10_1" index="1" disallow="pedestrian" speed="13.89" length="37.40" shape="20.79,23.61 19.16,12.98 20.06,1.74 23.49,-10.08 24.81,-12.84"/>
    </edge>
    <edge id=":ts_12" function="internal">
        <lane id=":ts_12_0" index="0" disallow="pedestrian" speed="13.89" length="52.13" shape="17.70,24.48 3.63,-25.67"/>
        <lane id=":ts_12_1" index="1" disallow="pedestrian" speed="13.89" length="52.13" shape="14.62,25.34 0.52,-24.90"/>
    </edge>
    <edge id=":ts_14" function="internal">
        <lane id=":ts_14_0" index="0" disallow="pedestrian" speed="13.89" length="6.62" shape="11.54,26.20 8.99,20.09"/>
    </edge>
    <edge id=":ts_34" function="internal">
        <lane id=":ts_34_0" index="0" disallow="pedestrian" speed="10.01" length="7.77" shape="27.94,3.83 28.23,3.59 35.60,2.89"/>
    </edge>
    <edge id=":ts_35" function="internal">
        <lane id=":ts_35_0" index="0" disallow="pedestrian" speed="13.89" length="11.21" shape="27.36,-10.81 32.22,-20.92"/>
    </edge>
    <edge id=":ts_36" function="internal">
        <lane id=":ts_36_0" index="0" disallow="pedestrian" speed="13.89" length="10.71" shape="24.81,-12.84 29.44,-22.50"/>
    </edge>
    <edge id=":ts_37" function="internal">
        <lane id=":ts_37_0" index="0" disallow="pedestrian" speed="13.89" length="41.35" shape="8.99,20.09 6.29,13.63 -1.29,5.20 -11.19,0.92 -23.42,0.77"/>
    </edge>
    <edge id=":ts_15" function="internal">
        <lane id=":ts_15_0" index="0" disallow="pedestrian" speed="13.15" length="27.50" shape="-22.48,7.31 -14.20,7.67 -7.32,11.38 -1.85,18.44 -0.95,20.74"/>
    </edge>
    <edge id=":ts_16" function="internal">
        <lane id=":ts_16_0" index="0" disallow="pedestrian" speed="13.89" length="58.29" shape="-22.48,7.31 -8.54,5.59 8.39,3.98 24.41,2.93 35.60,2.89"/>
    </edge>
    <edge id=":ts_17" function="internal">
        <lane id=":ts_17_0" index="0" disallow="pedestrian" speed="13.89" length="6.88" shape="-22.93,4.14 -16.20,2.73"/>
    </edge>
    <edge id=":ts_18" function="internal">
        <lane id=":ts_18_0" index="0" disallow="pedestrian" speed="13.40" length="6.11" shape="-22.93,4.14 -16.98,2.78"/>
    </edge>
    <edge id=":ts_38" function="internal">
        <lane id=":ts_38_0" index="0" disallow="pedestrian" speed="13.15" length="8.71" shape="-0.95,20.74 2.21,28.85"/>
    </edge>
    <edge id=":ts_39" function="internal">
        <lane id=":ts_39_0" index="0" disallow="pedestrian" speed="13.89" length="53.76" shape="-16.20,2.73 -4.43,0.25 10.47,-5.48 21.76,-13.07 29.44,-22.50"/>
    </edge>
    <edge id=":ts_40" function="internal">
        <lane id=":ts_40_0" index="0" disallow="pedestrian" speed="13.40" length="38.69" shape="-16.98,2.78 -9.91,1.17 -1.65,-3.95 1.84,-12.29 0.52,-24.90"/>
    </edge>
    <edge id=":ts_19" function="internal">
        <lane id=":ts_19_0" index="0" disallow="pedestrian" speed="10.95" length="21.68" shape="-12.02,-21.81 -10.99,-12.79 -12.54,-6.03 -16.37,-1.85"/>
    </edge>
    <edge id=":ts_20" function="internal">
        <lane id=":ts_20_0" index="0" disallow="pedestrian" speed="13.89" length="52.53" shape="-12.02,-21.81 2.21,28.85"/>
        <lane id=":ts_20_1" index="1" disallow="pedestrian" speed="13.89" length="52.53" shape="-8.92,-22.57 5.30,28.00"/>
        <lane id=":ts_20_2" index="2" disallow="pedestrian" speed="13.89" length="52.53" shape="-5.81,-23.34 8.38,27.14"/>
    </edge>
    <edge id=":ts_23" function="internal">
        <lane id=":ts_23_0" index="0" disallow="pedestrian" speed="13.89" length="32.64" shape="-2.70,-24.11 1.79,-13.30 9.67,-5.20 18.36,-1.03"/>
    </edge>
    <edge id=":ts_24" function="internal">
        <lane id=":ts_24_0" index="0" disallow="pedestrian" speed="11.14" length="32.15" shape="-2.70,-24.11 3.24,-13.22 12.79,-9.04 21.85,-11.24"/>
        <lane id=":ts_24_1" index="1" disallow="pedestrian" speed="10.69" length="32.24" shape="-2.70,-24.11 2.77,-14.32 11.56,-10.94 21.26,-13.74 22.29,-14.84"/>
    </edge>
    <edge id=":ts_41" function="internal">
        <lane id=":ts_41_0" index="0" disallow="pedestrian" speed="10.95" length="7.57" shape="-16.37,-1.85 -16.68,-1.51 -23.42,0.77"/>
    </edge>
    <edge id=":ts_42" function="internal">
        <lane id=":ts_42_0" index="0" disallow="pedestrian" speed="13.89" length="17.76" shape="18.36,-1.03 20.94,0.20 35.60,2.89"/>
    </edge>
    <edge id=":ts_43" function="internal">
        <lane id=":ts_43_0" index="0" disallow="pedestrian" speed="11.14" length="14.40" shape="21.85,-11.24 23.32,-11.60 32.22,-20.92"/>
    </edge>
    <edge id=":ts_44" function="internal">
        <lane id=":ts_44_0" index="0" disallow="pedestrian" speed="10.69" length="10.48" shape="22.29,-14.84 29.44,-22.50"/>
    </edge>
    <edge id=":ts_c0" function="crossing" crossingEdges="ts_se1 se0_ts">
        <lane id=":ts_c0_0" index="0" allow="pedestrian" speed="2.78" length="18.56" width="4.00" customShape="1" shape="29.59,-11.60 15.06,-23.14" outlineShape="30.51,13.42 16.23,24.77 16.13,24.74 16.30,24.71 17.84,26.10 15.10,24.60 11.96,23.69 11.21,23.65 29.48,9.13 29.56,10.51 30.51,13.42"/>
    </edge>
    <edge id=":ts_c1" function="crossing" crossingEdges="ts_e1 e0_ts">
        <lane id=":ts_c1_0" index="0" allow="pedestrian" speed="2.78" length="7.74" width="4.00" customShape="1" shape="29.82,4.90 30.81,-2.78" outlineShape="31.79,-5.25 32.81,2.62 32.79,2.52 32.57,2.81 30.36,4.48 30.01,5.38 28.83,3.04 27.84,-4.64 29.22,-7.72 29.43,-7.40 32.23,-5.16 31.80,-5.16"/>
    </edge>
    <edge id=":ts_c2" function="crossing" crossingEdges="ts_n1 n0_ts">
        <lane id=":ts_c2_0" index="0" allow="pedestrian" speed="2.78" length="25.65" width="4.00" customShape="1" shape="-1.08,22.84 23.76,16.45" outlineShape="-0.68,-24.80 24.26,-18.39 25.04,-18.68 25.69,-14.65 26.02,-13.80 -2.41,-21.12 -1.73,-22.38 -0.58,-24.78"/>
    </edge>
    <edge id=":ts_c3" function="crossing" crossingEdges="ts_w1 w0_ts">
        <lane id=":ts_c3_0" index="0" allow="pedestrian" speed="2.78" length="17.33" width="4.00" customShape="1" shape="-19.26,-5.69 -15.55,11.24" outlineShape="-21.21,5.26 -17.48,-11.77 -17.50,-11.67 -17.01,-8.78 -13.85,-9.66 -16.76,3.64 -19.38,1.96 -21.21,5.26"/>
    </edge>
    <edge id=":ts_c4" function="crossing" crossingEdges="ts_sw1 sw0_ts">
        <lane id=":ts_c4_0" index="0" allow="pedestrian" speed="2.78" length="24.75" width="4.00" customShape="1" shape="9.60,-23.11 -14.38,-17.00" outlineShape="9.11,25.05 -14.97,18.91 -14.87,18.94 -12.68,15.72 -12.69,15.37 -13.89,15.06 10.09,21.17 11.92,23.69 8.92,23.53 6.49,24.26 9.11,25.05"/>
    </edge>
    <edge id=":ts_w0" function="walkingarea">
        <lane id=":ts_w0_0" index="0" allow="pedestrian" speed="2.78" length="11.38" width="4.00" shape="30.83,-13.17 33.62,-20.13 35.35,-19.14 36.17,-4.02 36.00,-2.03 32.79,-2.52 32.57,-2.81 30.36,-4.48 29.35,-7.05 29.56,-10.51 30.98,-14.87"/>
    </edge>
    <edge id=":ts_w1" function="walkingarea">
        <lane id=":ts_w1_0" index="0" allow="pedestrian" speed="2.78" length="12.86" width="4.00" shape="31.80,5.16 35.47,4.49 35.31,6.48 27.34,21.78 25.41,22.32 24.26,18.39 25.04,18.68 25.69,14.65 27.20,10.73 29.43,7.40 32.23,5.16"/>
    </edge>
    <edge id=":ts_w2" function="walkingarea">
        <lane id=":ts_w2_0" index="0" allow="pedestrian" speed="2.78" length="18.32" width="4.00" shape="-0.58,24.78 0.67,29.28 -1.26,29.82 -21.97,10.87 -22.25,8.89 -17.50,11.67 -17.01,8.78 -12.34,10.08 -8.23,12.78 -4.70,16.88 -1.73,22.38"/>
    </edge>
    <edge id=":ts_w3" function="walkingarea">
        <lane id=":ts_w3_0" index="0" allow="pedestrian" speed="2.78" length="13.00" width="4.00" shape="-21.21,-5.26 -23.64,-0.82 -23.93,-2.80 -15.52,-20.96 -13.57,-21.41 -14.87,-18.94 -12.68,-15.72 -12.80,-10.90 -13.96,-7.00 -16.16,-4.02 -19.38,-1.96"/>
    </edge>
    <edge id=":ts_w4" function="walkingarea">
        <lane id=":ts_w4_0" index="0" allow="pedestrian" speed="2.78" length="6.53" width="4.00" shape="9.11,-25.05 5.18,-26.05 7.13,-26.53 16.30,-24.71 17.84,-26.10 15.10,-24.60 11.96,-23.69 8.92,-23.53 6.49,-24.26"/>
    </edge>
    <edge id=":w0_0" function="internal">
        <lane id=":w0_0_0" index="0" disallow="pedestrian" speed="13.89" length="8.37" shape="-124.00,21.98 -116.07,20.96"/>
        <lane id=":w0_0_1" index="1" disallow="pedestrian" speed="13.89" length="8.37" shape="-124.00,21.98 -121.64,21.18 -120.26,19.91 -118.89,18.63 -116.53,17.79"/>
    </edge>
    <edge id=":w0_w0" function="walkingarea">
        <lane id=":w0_w0_0" index="0" allow="pedestrian" speed="2.78" length="8.45" width="3.20" shape="-115.84,22.54 -115.55,24.52 -123.79,23.56 -124.20,20.39"/>
    </edge>

    <edge id="e0_ts" from="e0" to="ts" priority="-1" shape="131.91,8.99 35.77,1.16">
        <lane id="e0_ts_0" index="0" allow="pedestrian" speed="13.89" length="96.49" width="2.00" shape="132.25,4.80 36.08,-3.03"/>
        <lane id="e0_ts_1" index="1" disallow="pedestrian" speed="13.89" length="96.49" shape="132.04,7.40 35.87,-0.44"/>
    </edge>
    <edge id="n01_n0" from="n01" to="n0" priority="-1" shape="42.92,134.86 26.70,72.33">
        <lane id="n01_n0_0" index="0" allow="pedestrian" speed="13.89" length="64.60" width="2.00" shape="53.18,132.20 36.96,69.67"/>
        <lane id="n01_n0_1" index="1" disallow="pedestrian" speed="13.89" length="64.60" shape="50.66,132.85 34.44,70.32"/>
        <lane id="n01_n0_2" index="2" disallow="pedestrian" speed="13.89" length="64.60" shape="47.57,133.65 31.35,71.12"/>
        <lane id="n01_n0_3" index="3" disallow="pedestrian" speed="13.89" length="64.60" shape="44.47,134.46 28.25,71.93"/>
    </edge>
    <edge id="n0_ts" from="n0" to="ts" priority="-1" shape="19.04,58.96 10.00,26.63">
        <lane id="n0_ts_0" index="0" allow="pedestrian" speed="13.89" length="33.57" width="2.00" shape="35.41,54.38 26.37,22.05"/>
        <lane id="n0_ts_1" index="1" disallow="pedestrian" speed="13.89" length="33.57" shape="32.91,55.08 23.87,22.75"/>
        <lane id="n0_ts_2" index="2" disallow="pedestrian" speed="13.89" length="33.57" shape="29.83,55.94 20.79,23.61"/>
        <lane id="n0_ts_3" index="3" disallow="pedestrian" speed="13.89" length="33.57" shape="26.74,56.81 17.70,24.48"/>
        <lane id="n0_ts_4" index="4" disallow="pedestrian" speed="13.89" length="33.57" shape="23.66,57.67 14.62,25.34"/>
        <lane id="n0_ts_5" index="5" disallow="pedestrian" speed="13.89" length="33.57" shape="20.58,58.53 11.54,26.20"/>
    </edge>
    <edge id="se01_se0" from="se01" to="se0" priority="-1" shape="85.32,-129.60 46.99,-63.21">
        <lane id="se01_se0_0" index="0" allow="pedestrian" speed="13.89" length="76.66" width="2.00" shape="78.91,-133.30 40.58,-66.91"/>
        <lane id="se01_se0_1" index="1" disallow="pedestrian" speed="13.89" length="76.66" shape="81.16,-132.00 42.83,-65.61"/>
        <lane id="se01_se0_2" index="2" disallow="pedestrian" speed="13.89" length="76.66" shape="83.93,-130.40 45.60,-64.01"/>
    </edge>
    <edge id="se0_sw1" from="se0" to="sw1" priority="-1" shape="30.61,-48.19 26.80,-41.54 21.83,-31.99 18.65,-28.43 13.63,-26.96 10.24,-26.92">
        <lane id="se0_sw1_0" index="0" allow="pedestrian" speed="13.89" length="29.80" width="2.00" shape="26.97,-50.28 23.11,-43.55 18.35,-34.40 16.32,-32.12 13.00,-31.15 8.20,-31.10"/>
        <lane id="se0_sw1_1" index="1" disallow="pedestrian" speed="13.89" length="29.80" shape="29.22,-48.99 25.40,-42.31 20.50,-32.91 17.76,-29.84 13.39,-28.56 10.12,-28.52"/>
    </edge>
    <edge id="se0_ts" from="se0" to="ts" priority="-1" shape="39.96,-44.48 28.02,-23.33">
        <lane id="se0_ts_0" index="0" disallow="pedestrian" speed="13.89" length="22.90" shape="32.32,-47.21 21.05,-27.26"/>
        <lane id="se0_ts_1" index="1" disallow="pedestrian" speed="13.89" length="22.90" shape="35.09,-45.62 23.84,-25.68"/>
        <lane id="se0_ts_2" index="2" disallow="pedestrian" speed="13.89" length="22.90" shape="37.87,-44.03 26.62,-24.10"/>
    </edge>
    <edge id="sw01_sw0" from="sw01" to="sw0" priority="-1" shape="-27.25,-122.93 -20.01,-92.22">
        <lane id="sw01_sw0_0" index="0" allow="pedestrian" speed="13.89" length="31.55" width="2.00" shape="-37.57,-120.50 -30.33,-89.79"/>
        <lane id="sw01_sw0_1" index="1" disallow="pedestrian" speed="13.89" length="31.55" shape="-35.04,-121.09 -27.80,-90.38"/>
        <lane id="sw01_sw0_2" index="2" disallow="pedestrian" speed="13.89" length="31.55" shape="-31.92,-121.83 -24.68,-91.12"/>
        <lane id="sw01_sw0_3" index="3" disallow="pedestrian" speed="13.89" length="31.55" shape="-28.81,-122.56 -21.57,-91.85"/>
    </edge>
    <edge id="sw0_ts" from="sw0" to="ts" priority="-1" shape="-11.62,-70.03 -1.62,-26.54">
        <lane id="sw0_ts_0" index="0" allow="pedestrian" speed="13.89" length="46.85" width="2.00" shape="-25.07,-66.94 -14.55,-21.18"/>
        <lane id="sw0_ts_1" index="1" disallow="pedestrian" speed="13.89" length="46.85" shape="-22.54,-67.52 -12.02,-21.81"/>
        <lane id="sw0_ts_2" index="2" disallow="pedestrian" speed="13.89" length="46.85" shape="-19.42,-68.24 -8.92,-22.57"/>
        <lane id="sw0_ts_3" index="3" disallow="pedestrian" speed="13.89" length="46.85" shape="-16.30,-68.95 -5.81,-23.34"/>
        <lane id="sw0_ts_4" index="4" disallow="pedestrian" speed="13.89" length="46.85" shape="-13.18,-69.67 -2.70,-24.11"/>
    </edge>
    <edge id="sw1_sw11" from="sw1" to="sw11" priority="-1" shape="-4.31,-38.37 -23.84,-123.84">
        <lane id="sw1_sw11_0" index="0" allow="pedestrian" speed="13.89" length="95.29" width="2.00" shape="8.23,-31.08 -13.51,-126.20"/>
        <lane id="sw1_sw11_1" index="1" disallow="pedestrian" speed="13.89" length="95.29" shape="5.01,-33.51 -16.04,-125.62"/>
        <lane id="sw1_sw11_2" index="2" disallow="pedestrian" speed="13.89" length="95.29" shape="1.90,-32.76 -19.16,-124.91"/>
        <lane id="sw1_sw11_3" index="3" disallow="pedestrian" speed="13.89" length="95.29" shape="-1.21,-32.00 -22.28,-124.20"/>
    </edge>
    <edge id="ts_e1" from="ts" to="e1" priority="-1" shape="35.73,1.30 132.07,9.20">
        <lane id="ts_e1_0" index="0" allow="pedestrian" speed="13.89" length="96.66" width="2.00" shape="35.39,5.49 131.73,13.39"/>
        <lane id="ts_e1_1" index="1" disallow="pedestrian" speed="13.89" length="96.66" shape="35.60,2.89 131.94,10.79"/>
    </edge>
    <edge id="ts_n1" from="ts" to="n1" priority="-1" shape="9.92,26.71 40.25,135.74">
        <lane id="ts_n1_0" index="0" allow="pedestrian" speed="13.89" length="113.17" width="2.00" shape="-0.29,29.55 30.04,138.58"/>
        <lane id="ts_n1_1" index="1" disallow="pedestrian" speed="13.89" length="113.17" shape="2.21,28.85 32.54,137.88"/>
        <lane id="ts_n1_2" index="2" disallow="pedestrian" speed="13.89" length="113.17" shape="5.30,28.00 35.63,137.03"/>
        <lane id="ts_n1_3" index="3" disallow="pedestrian" speed="13.89" length="113.17" shape="8.38,27.14 38.71,136.17"/>
    </edge>
    <edge id="ts_se1" from="ts" to="se1" priority="-1" shape="28.05,-23.29 88.38,-129.54">
        <lane id="ts_se1_0" index="0" allow="pedestrian" speed="13.89" length="122.18" width="2.00" shape="34.49,-19.64 94.82,-125.89"/>
        <lane id="ts_se1_1" index="1" disallow="pedestrian" speed="13.89" length="122.18" shape="32.22,-20.92 92.55,-127.17"/>
        <lane id="ts_se1_2" index="2" disallow="pedestrian" speed="13.89" length="122.18" shape="29.44,-22.50 89.77,-128.75"/>
    </edge>
    <edge id="ts_sw1" from="ts" to="sw1" priority="-1" shape="-1.03,-24.52 -1.98,-28.37">
        <lane id="ts_sw1_0" index="0" allow="pedestrian" speed="13.89" length="3.41" width="2.00" shape="6.15,-26.29 5.55,-28.73"/>
        <lane id="ts_sw1_1" index="1" disallow="pedestrian" speed="13.89" length="3.41" shape="3.63,-25.67 2.68,-29.52"/>
        <lane id="ts_sw1_2" index="2" disallow="pedestrian" speed="13.89" length="3.41" shape="0.52,-24.90 -0.38,-28.55"/>
    </edge>
    <edge id="ts_w1" from="ts" to="w1" priority="-1" shape="-23.19,2.35 -134.13,18.26">
        <lane id="ts_w1_0" index="0" allow="pedestrian" speed="13.89" length="112.08" width="2.00" shape="-23.79,-1.81 -134.73,14.10"/>
        <lane id="ts_w1_1" index="1" disallow="pedestrian" speed="13.89" length="112.08" shape="-23.42,0.77 -134.36,16.68"/>
    </edge>
    <edge id="w01_w0" from="w01" to="w0" priority="-1" shape="-134.27,21.69 -122.28,20.14">
        <lane id="w01_w0_0" index="0" speed="13.89" length="10.00" shape="-133.91,23.26 -124.00,21.98"/>
    </edge>
    <edge id="w0_ts" from="w0" to="ts" priority="-1" shape="-118.68,16.49 -23.26,2.57">
        <lane id="w0_ts_0" index="0" allow="pedestrian" speed="13.89" length="94.58" width="2.00" shape="-115.70,23.53 -22.11,9.88"/>
        <lane id="w0_ts_1" index="1" disallow="pedestrian" speed="13.89" length="94.58" shape="-116.07,20.96 -22.48,7.31"/>
        <lane id="w0_ts_2" index="2" disallow="pedestrian" speed="13.89" length="94.58" shape="-116.53,17.79 -22.93,4.14"/>
    </edge>

    <tlLogic id="J5" type="static" programID="0" offset="0">
        <phase duration="33.60" state="rrrrrrrrrrrrGGgrrrrgGGGrrrGGrGr"/>
        <phase duration="3"  state="rrrrrrrrrrrryygrrrrgyyyrrryyrGr"/>
        <phase duration="10.80" state="rrrrrrrrrGGGrrgrrrrgrrrgggrrrGr"/>
        <phase duration="4"  state="rrrrrrrrryyyrryrrrryrrryyyrrryr"/>
        <phase duration="4"  state="rrrrrrrrrrrrrrrrrrrrrrrrrrrrrrr"/>
        <phase duration="20.40" state="GGGGgrrrrGGGrrgrrrrrrrrrrrrrrrG"/>
        <phase duration="4"  state="GGGGgrrrryyyrryrrrrrrrrrrrrrrrG"/>
        <phase duration="10.80" state="GGGGGrrrrrrrrrrrrrrrrrrrrrrrrrG"/>
        <phase duration="4"  state="yyyyyrrrrrrrrrrrrrrrrrrrrrrrrrr"/>
        <phase duration="4"  state="rrrrrrrrrrrrrrrrrrrrrrrrrrrrrrr"/>
        <phase duration="33.60" state="rrrrrGGGgrrrrrrGGggrrrrrrrrrrrr"/>
        <phase duration="3"  state="rrrrryyyyrrrrrrGGggrrrrrrrrrrrr"/>
        <phase duration="10.80" state="rrrrrrrrrrrrrrrGGGGrrrrrrrrrrrr"/>
        <phase duration="4"  state="rrrrrrrrrrrrrrryyyyrrrrrrrrrrrr"/>
        <phase duration="4"  state="rrrrrrrrrrrrrrrrrrrrrrrrrrrrrrr"/>
    </tlLogic>

    <junction id="e0" type="dead_end" x="131.91" y="8.99" incLanes="" intLanes="" shape="131.91,8.99 132.33,3.81"/>
    <junction id="e1" type="dead_end" x="132.07" y="9.20" incLanes="ts_e1_0 ts_e1_1" intLanes="" shape="131.65,14.38 132.07,9.20"/>
    <junction id="n0" type="priority" x="31.06" y="70.34" incLanes="n01_n0_0 n01_n0_1 n01_n0_2 n01_n0_3" intLanes=":n0_0_0 :n0_0_1 :n0_0_2 :n0_0_3 :n0_0_4" shape="37.93,69.42 26.70,72.33 25.60,69.27 24.32,67.20 22.92,65.63 21.52,64.07 20.19,62.01 19.04,58.96 36.38,54.11 37.08,57.30 37.27,59.72 37.20,61.75 37.13,63.79 37.29,66.21">
        <request index="0" response="00000" foes="00000" cont="0"/>
        <request index="1" response="00000" foes="00000" cont="0"/>
        <request index="2" response="00000" foes="00000" cont="0"/>
        <request index="3" response="00000" foes="00000" cont="0"/>
        <request index="4" response="00000" foes="00000" cont="0"/>
    </junction>
    <junction id="n01" type="dead_end" x="42.92" y="134.86" incLanes="" intLanes="" shape="42.92,134.86 54.15,131.95"/>
    <junction id="n1" type="dead_end" x="40.25" y="135.74" incLanes="ts_n1_0 ts_n1_1 ts_n1_2 ts_n1_3" intLanes="" shape="29.07,138.85 40.25,135.74"/>
    <junction id="se0" type="priority" x="46.90" y="-64.08" incLanes="se01_se0_0 se01_se0_1 se01_se0_2" intLanes=":se0_0_0 :se0_1_0 :se0_1_1 :se0_1_2" shape="39.72,-67.41 46.99,-63.21 44.92,-59.16 43.78,-55.98 43.09,-53.24 42.41,-50.50 41.29,-47.31 39.26,-43.24 26.10,-50.78 28.59,-54.60 30.81,-57.16 32.90,-59.10 34.98,-61.03 37.21,-63.59">
        <request index="0" response="0000" foes="0000" cont="0"/>
        <request index="1" response="0000" foes="0000" cont="0"/>
        <request index="2" response="0000" foes="0000" cont="0"/>
        <request index="3" response="0000" foes="0000" cont="0"/>
    </junction>
    <junction id="se01" type="dead_end" x="85.32" y="-129.60" incLanes="" intLanes="" shape="85.32,-129.60 78.05,-133.80"/>
    <junction id="se1" type="dead_end" x="88.38" y="-129.54" incLanes="ts_se1_0 ts_se1_1 ts_se1_2" intLanes="" shape="95.68,-125.39 88.38,-129.54"/>