<?xml version="1.0" encoding="UTF-8"?>

<!-- generated on 2024-11-19 14:23:45 by Eclipse SUMO netedit Version 1.20.0
<configuration xmlns:xsi="http://www.w3.org/2001/XMLSchema-instance" xsi:noNamespaceSchemaLocation="http://sumo.dlr.de/xsd/neteditConfiguration.xsd">

    <input>
        <sumo-net-file value="/Users/chashu/Desktop/dev/sumorl-venv/app/data/5road_intersection/net/2way.net.xml"/>
    </input>

    <output>
        <output-file value="/Users/chashu/Desktop/dev/sumorl-venv/app/data/5road_intersection/net/2way.net.xml"/>
    </output>

    <processing>
        <geometry.min-radius.fix.railways value="false"/>
        <geometry.max-grade.fix value="false"/>
        <offset.disable-normalization value="true"/>
        <lefthand value="1"/>
    </processing>

    <junctions>
        <no-turnarounds value="true"/>
        <junctions.corner-detail value="5"/>
        <junctions.limit-turn-speed value="5.50"/>
        <rectangular-lane-cut value="0"/>
    </junctions>

    <pedestrian>
        <walkingareas value="0"/>
    </pedestrian>

</configuration>
-->

<net version="1.20" junctionCornerDetail="5" lefthand="true" limitTurnSpeed="5.50" xmlns:xsi="http://www.w3.org/2001/XMLSchema-instance" xsi:noNamespaceSchemaLocation="http://sumo.dlr.de/xsd/net_file.xsd">

    <location netOffset="0.00,-0.00" convBoundary="-300.00,-300.00,300.00,300.00" origBoundary="-10000000000.00,-10000000000.00,10000000000.00,10000000000.00" projParameter="!"/>

    <edge id=":ts_0" function="internal">
        <lane id=":ts_0_0" index="0" speed="5.82" length="9.14" shape="3.55,-13.98 1.78,-11.98 -0.00,-11.32 -1.78,-11.98 -3.55,-13.98"/>
        <lane id=":ts_0_1" index="1" speed="6.72" length="12.62" shape="3.55,-13.98 0.89,-10.79 -1.63,-9.43 -3.99,-9.90 -6.21,-12.20"/>
    </edge>
    <edge id=":ts_2" function="internal">
        <lane id=":ts_2_0" index="0" speed="13.89" length="22.54" shape="3.55,-13.98 -0.16,-8.80 -3.62,-5.30 -7.81,-2.75 -13.74,-0.48"/>
        <lane id=":ts_2_1" index="1" speed="13.89" length="23.83" shape="3.55,-13.98 0.00,-8.33 -3.11,-3.78 -6.96,-0.19 -12.72,2.55"/>
    </edge>
    <edge id=":ts_4" function="internal">
        <lane id=":ts_4_0" index="0" speed="13.89" length="27.62" shape="3.55,-13.98 -0.09,-7.68 -2.71,-1.18 -4.28,5.63 -4.80,12.88"/>
        <lane id=":ts_4_1" index="1" speed="13.89" length="27.62" shape="6.21,-12.20 2.65,-6.18 0.23,-0.29 -1.16,5.91 -1.60,12.88"/>
    </edge>
    <edge id=":ts_6" function="internal">
        <lane id=":ts_6_0" index="0" speed="9.76" length="26.02" shape="6.21,-12.20 2.54,-4.97 2.06,0.91 4.78,5.45 10.70,8.63"/>
        <lane id=":ts_6_1" index="1" speed="9.17" length="22.84" shape="6.21,-12.20 3.29,-6.19 3.23,-1.23 6.04,2.70 11.71,5.59"/>
    </edge>
    <edge id=":ts_8" function="internal">
        <lane id=":ts_8_0" index="0" speed="6.37" length="10.37" shape="13.74,-0.48 11.25,-1.77 10.06,-3.57 10.15,-5.86 11.54,-8.65"/>
        <lane id=":ts_8_1" index="1" speed="7.18" length="13.51" shape="13.74,-0.48 9.91,-2.28 7.82,-4.53 7.48,-7.25 8.88,-10.43"/>
    </edge>
    <edge id=":ts_10" function="internal">
        <lane id=":ts_10_0" index="0" speed="13.89" length="22.54" shape="13.74,-0.48 7.81,-2.75 3.62,-5.30 0.16,-8.80 -3.55,-13.98"/>
        <lane id=":ts_10_1" index="1" speed="13.89" length="23.76" shape="13.74,-0.48 7.40,-2.48 2.28,-4.41 -2.09,-7.31 -6.21,-12.20"/>
    </edge>
    <edge id=":ts_12" function="internal">
        <lane id=":ts_12_0" index="0" speed="13.89" length="26.97" shape="13.74,-0.48 6.78,-2.26 0.00,-2.85 -6.78,-2.26 -13.74,-0.48"/>
        <lane id=":ts_12_1" index="1" speed="13.89" length="26.97" shape="12.72,2.55 6.08,0.78 0.00,0.18 -6.08,0.78 -12.72,2.55"/>
    </edge>
    <edge id=":ts_14" function="internal">
        <lane id=":ts_14_0" index="0" speed="9.48" length="25.37" shape="12.72,2.55 5.06,1.01 -0.42,2.22 -3.70,6.17 -4.80,12.88"/>
        <lane id=":ts_14_1" index="1" speed="8.88" length="22.09" shape="12.72,2.55 6.46,1.41 1.98,2.75 -0.70,6.57 -1.60,12.88"/>
    </edge>
    <edge id=":ts_16" function="internal">
        <lane id=":ts_16_0" index="0" speed="5.92" length="9.10" shape="4.80,12.88 5.17,10.28 6.28,8.71 8.12,8.15 10.70,8.63"/>
    </edge>
    <edge id=":ts_17" function="internal">
        <lane id=":ts_17_0" index="0" speed="13.89" length="23.04" shape="4.80,12.88 5.07,6.47 6.09,1.48 8.14,-3.18 11.54,-8.65"/>
        <lane id=":ts_17_1" index="1" speed="13.89" length="24.87" shape="1.60,12.88 1.96,6.19 3.16,0.60 5.40,-4.68 8.88,-10.43"/>
    </edge>
    <edge id=":ts_19" function="internal">
        <lane id=":ts_19_0" index="0" speed="13.89" length="27.25" shape="1.60,12.88 1.58,5.63 1.11,-1.18 -0.41,-7.68 -3.55,-13.98"/>
        <lane id=":ts_19_1" index="1" speed="13.89" length="27.25" shape="1.60,12.88 1.16,5.91 -0.23,-0.29 -2.65,-6.18 -6.21,-12.20"/>
    </edge>
    <edge id=":ts_21" function="internal">
        <lane id=":ts_21_0" index="0" speed="9.48" length="25.37" shape="1.60,12.88 0.64,5.12 -2.23,0.30 -7.03,-1.56 -13.74,-0.48"/>
        <lane id=":ts_21_1" index="1" speed="8.88" length="22.09" shape="1.60,12.88 0.70,6.57 -1.98,2.75 -6.46,1.41 -12.72,2.55"/>
    </edge>
    <edge id=":ts_23" function="internal">
        <lane id=":ts_23_0" index="0" speed="5.92" length="9.10" shape="-10.70,8.63 -8.12,8.15 -6.28,8.71 -5.17,10.28 -4.80,12.88"/>
        <lane id=":ts_23_1" index="1" speed="6.80" length="12.42" shape="-10.70,8.63 -6.72,7.75 -3.88,8.17 -2.17,9.88 -1.60,12.88"/>
    </edge>
    <edge id=":ts_25" function="internal">
        <lane id=":ts_25_0" index="0" speed="13.89" length="21.99" shape="-10.70,8.63 -4.69,6.85 -0.00,6.25 4.69,6.85 10.70,8.63"/>
        <lane id=":ts_25_1" index="1" speed="13.89" length="23.23" shape="-10.70,8.63 -4.53,6.37 0.51,4.74 5.54,4.29 11.71,5.59"/>
    </edge>
    <edge id=":ts_27" function="internal">
        <lane id=":ts_27_0" index="0" speed="13.89" length="27.66" shape="-10.70,8.63 -4.00,5.76 1.90,1.92 7.06,-2.89 11.54,-8.65"/>
        <lane id=":ts_27_1" index="1" speed="13.89" length="27.66" shape="-11.71,5.59 -5.27,2.92 0.06,-0.48 4.65,-4.86 8.88,-10.43"/>
    </edge>
    <edge id=":ts_29" function="internal">
        <lane id=":ts_29_0" index="0" speed="9.75" length="25.98" shape="-11.71,5.59 -4.70,2.20 -1.00,-2.19 -0.61,-7.59 -3.55,-13.98"/>
        <lane id=":ts_29_1" index="1" speed="9.17" length="22.84" shape="-11.71,5.59 -6.04,2.70 -3.23,-1.23 -3.29,-6.19 -6.21,-12.20"/>
    </edge>
    <edge id=":ts_31" function="internal">
        <lane id=":ts_31_0" index="0" speed="6.37" length="10.37" shape="-11.54,-8.65 -10.15,-5.86 -10.06,-3.57 -11.25,-1.77 -13.74,-0.48"/>
        <lane id=":ts_31_1" index="1" speed="7.20" length="13.60" shape="-11.54,-8.65 -9.40,-4.64 -8.89,-1.43 -9.99,0.97 -12.72,2.55"/>
    </edge>
    <edge id=":ts_33" function="internal">
        <lane id=":ts_33_0" index="0" speed="13.89" length="23.04" shape="-11.54,-8.65 -8.14,-3.18 -6.09,1.48 -5.07,6.47 -4.80,12.88"/>
        <lane id=":ts_33_1" index="1" speed="13.89" length="24.87" shape="-8.88,-10.43 -5.40,-4.68 -3.16,0.60 -1.96,6.19 -1.60,12.88"/>
    </edge>
    <edge id=":ts_35" function="internal">
        <lane id=":ts_35_0" index="0" speed="13.89" length="27.25" shape="-8.88,-10.43 -4.81,-4.39 -0.56,1.03 4.42,5.49 10.70,8.63"/>
        <lane id=":ts_35_1" index="1" speed="13.89" length="27.25" shape="-8.88,-10.43 -4.65,-4.86 -0.06,-0.48 5.27,2.92 11.71,5.59"/>
    </edge>
    <edge id=":ts_37" function="internal">
        <lane id=":ts_37_0" index="0" speed="9.45" length="26.29" shape="-8.88,-10.43 -3.55,-4.24 1.63,-1.89 6.66,-3.36 11.54,-8.65"/>
        <lane id=":ts_37_1" index="1" speed="8.84" length="22.84" shape="-8.88,-10.43 -4.44,-5.44 -0.00,-3.77 4.44,-5.44 8.88,-10.43"/>
    </edge>

    <edge id="n0_ts" from="n0" to="ts" priority="-1">
        <lane id="n0_ts_0" index="0" speed="13.89" length="287.12" shape="4.80,300.00 4.80,12.88"/>
        <lane id="n0_ts_1" index="1" speed="13.89" length="287.12" shape="1.60,300.00 1.60,12.88"/>
    </edge>
    <edge id="ne0_ts" from="ne0" to="ts" priority="-1">
        <lane id="ne0_ts_0" index="0" speed="13.89" length="303.35" shape="301.52,95.45 13.74,-0.48"/>
        <lane id="ne0_ts_1" index="1" speed="13.89" length="303.35" shape="300.51,98.48 12.72,2.55"/>
    </edge>
    <edge id="nw0_ts" from="nw0" to="ts" priority="-1">
        <lane id="nw0_ts_0" index="0" speed="13.89" length="303.35" shape="-298.48,104.55 -10.70,8.63"/>
        <lane id="nw0_ts_1" index="1" speed="13.89" length="303.35" shape="-299.49,101.52 -11.71,5.59"/>
    </edge>
    <edge id="se0_ts" from="se0" to="ts" priority="-1">
        <lane id="se0_ts_0" index="0" speed="13.89" length="346.96" shape="196.01,-302.66 3.55,-13.98"/>
        <lane id="se0_ts_1" index="1" speed="13.89" length="346.96" shape="198.67,-300.89 6.21,-12.20"/>
    </edge>
    <edge id="sw0_ts" from="sw0" to="ts" priority="-1">
        <lane id="sw0_ts_0" index="0" speed="13.89" length="346.96" shape="-203.99,-297.34 -11.54,-8.65"/>
        <lane id="sw0_ts_1" index="1" speed="13.89" length="346.96" shape="-201.33,-299.11 -8.88,-10.43"/>
    </edge>
    <edge id="ts_n0" from="ts" to="n0" priority="-1">
        <lane id="ts_n0_0" index="0" speed="13.89" length="287.12" shape="-4.80,12.88 -4.80,300.00"/>
        <lane id="ts_n0_1" index="1" speed="13.89" length="287.12" shape="-1.60,12.88 -1.60,300.00"/>
    </edge>
    <edge id="ts_ne0" from="ts" to="ne0" priority="-1">
        <lane id="ts_ne0_0" index="0" speed="13.89" length="303.35" shape="10.70,8.63 298.48,104.55"/>
        <lane id="ts_ne0_1" index="1" speed="13.89" length="303.35" shape="11.71,5.59 299.49,101.52"/>
    </edge>
    <edge id="ts_nw0" from="ts" to="nw0" priority="-1">
        <lane id="ts_nw0_0" index="0" speed="13.89" length="303.35" shape="-13.74,-0.48 -301.52,95.45"/>
        <lane id="ts_nw0_1" index="1" speed="13.89" length="303.35" shape="-12.72,2.55 -300.51,98.48"/>
    </edge>
    <edge id="ts_se0" from="ts" to="se0" priority="-1">
        <lane id="ts_se0_0" index="0" speed="13.89" length="346.96" shape="11.54,-8.65 203.99,-297.34"/>
        <lane id="ts_se0_1" index="1" speed="13.89" length="346.96" shape="8.88,-10.43 201.33,-299.11"/>
    </edge>
    <edge id="ts_sw0" from="ts" to="sw0" priority="-1">
        <lane id="ts_sw0_0" index="0" speed="13.89" length="346.96" shape="-3.55,-13.98 -196.01,-302.66"/>
        <lane id="ts_sw0_1" index="1" speed="13.89" length="346.96" shape="-6.21,-12.20 -198.67,-300.89"/>
    </edge>

    <tlLogic id="J1" type="static" programID="0" offset="0">
        <phase duration="6"  state="rrrrrrrrrrrrrrrrGGGGGGGrrrrrrrrrrrrrrrr"/>
        <phase duration="6"  state="rrrrrrrrrrrrrrrryyyyyyyrrrrrrrrrrrrrrrr"/>
        <phase duration="2"  state="rrrrrrrrrrrrrrrrrrrrrrrrrrrrrrrrrrrrrrr"/>
        <phase duration="2"  state="rrrrrrrrrrrrrrrrrrrrrrrGGGGGGGGrrrrrrrr"/>
        <phase duration="2"  state="rrrrrrrrrrrrrrrrrrrrrrryyyyyyyyrrrrrrrr"/>
        <phase duration="2"  state="rrrrrrrrrrrrrrrrrrrrrrrrrrrrrrrrrrrrrrr"/>
        <phase duration="2"  state="rrrrrrrrrrrrrrrrrrrrrrrrrrrrrrrGGGGGGGG"/>
        <phase duration="2"  state="rrrrrrrrrrrrrrrrrrrrrrrrrrrrrrryyyyyyyy"/>
        <phase duration="2"  state="rrrrrrrrrrrrrrrrrrrrrrrrrrrrrrrrrrrrrrr"/>
        <phase duration="2"  state="GGGGGGGGrrrrrrrrrrrrrrrrrrrrrrrrrrrrrrr"/>
        <phase duration="2"  state="yyyyyyyyrrrrrrrrrrrrrrrrrrrrrrrrrrrrrrr"/>
        <phase duration="2"  state="rrrrrrrrrrrrrrrrrrrrrrrrrrrrrrrrrrrrrrr"/>
        <phase duration="2"  state="rrrrrrrrGGGGGGGGrrrrrrrrrrrrrrrrrrrrrrr"/>
        <phase duration="2"  state="rrrrrrrryyyyyyyyrrrrrrrrrrrrrrrrrrrrrrr"/>
        <phase duration="2"  state="rrrrrrrrrrrrrrrrrrrrrrrrrrrrrrrrrrrrrrr"/>
    </tlLogic>

    <junction id="n0" type="dead_end" x="0.00" y="300.00" incLanes="ts_n0_0 ts_n0_1" intLanes="" shape="0.00,300.00 -6.40,300.00 0.00,300.00"/>
    <junction id="ne0" type="dead_end" x="300.00" y="100.00" incLanes="ts_ne0_0 ts_ne0_1" intLanes="" shape="300.00,100.00 297.98,106.07 300.00,100.00"/>
    <junction id="nw0" type="dead_end" x="-300.00" y="100.00" incLanes="ts_nw0_0 ts_nw0_1" intLanes="" shape="-300.00,100.00 -302.02,93.93 -300.00,100.00"/>
    <junction id="se0" type="dead_end" x="200.00" y="-300.00" incLanes="ts_se0_0 ts_se0_1" intLanes="" shape="200.00,-300.00 205.33,-296.45 200.00,-300.00"/>
    <junction id="sw0" type="dead_end" x="-200.00" y="-300.00" incLanes="ts_sw0_0 ts_sw0_1" intLanes="" shape="-200.00,-300.00 -194.67,-303.55 -200.00,-300.00"/>
    <junction id="ts" type="traffic_light" x="0.00" y="0.00" incLanes="se0_ts_0 se0_ts_1 ne0_ts_0 ne0_ts_1 n0_ts_0 n0_ts_1 nw0_ts_0 nw0_ts_1 sw0_ts_0 sw0_ts_1" intLanes=":ts_0_0 :ts_0_1 :ts_2_0 :ts_2_1 :ts_4_0 :ts_4_1 :ts_6_0 :ts_6_1 :ts_8_0 :ts_8_1 :ts_10_0 :ts_10_1 :ts_12_0 :ts_12_1 :ts_14_0 :ts_14_1 :ts_16_0 :ts_17_0 :ts_17_1 :ts_19_0 :ts_19_1 :ts_21_0 :ts_21_1 :ts_23_0 :ts_23_1 :ts_25_0 :ts_25_1 :ts_27_0 :ts_27_1 :ts_29_0 :ts_29_1 :ts_31_0 :ts_31_1 :ts_33_0 :ts_33_1 :ts_35_0 :ts_35_1 :ts_37_0 :ts_37_1" shape="2.22,-14.87 12.87,-7.77 11.73,-5.19 11.76,-4.15 12.19,-3.27 13.02,-2.55 14.24,-2.00 10.19,10.14 8.09,9.89 7.35,10.20 6.82,10.80 6.51,11.69 6.40,12.88 -6.40,12.88 -6.82,10.80 -7.35,10.20 -8.09,9.89 -9.04,9.87 -10.19,10.14 -14.24,-2.00 -12.19,-3.27 -11.76,-4.15 -11.73,-5.19 -12.10,-6.40 -12.87,-7.77 -2.22,-14.87 -0.74,-13.39 -0.00,-13.20 0.74,-13.39 1.48,-13.94">
        <request index="0"  response="000000000000000000110000000000000000000" foes="000000001100000000110000000110000000000" cont="0"/>
        <request index="1"  response="000000000000000000110000000000000000000" foes="000000001100000000110000000110000000000" cont="0"/>
        <request index="2"  response="000000000000000000110000000000000000000" foes="111111111100000011110000011110000000000" cont="0"/>
        <request index="3"  response="000000000000000000110000000000000000000" foes="111111111100000011110000011110000000000" cont="0"/>
        <request index="4"  response="000000000000000000000000000000000000000" foes="111111000011111111110001111110000000000" cont="0"/>
        <request index="5"  response="000000000000000000000000000000000000000" foes="111111000011111111110001111110000000000" cont="0"/>
        <request index="6"  response="000000000000000000001110000000000000000" foes="111100000011110000001111111110000000000" cont="0"/>
        <request index="7"  response="000000000000000000001110000000000000000" foes="111100000011110000001111111110000000000" cont="0"/>
        <request index="8"  response="000000000011000000001100000000000000000" foes="110000000011000000001100000000000000000" cont="0"/>
        <request index="9"  response="000000000011000000001100000000000000000" foes="110000000011000000001100000000000000000" cont="0"/>
        <request index="10" response="000000000011000000111100000000011111111" foes="110000001111000000111100000000011111111" cont="0"/>
        <request index="11" response="000000000011000000111100000000011111111" foes="110000001111000000111100000000011111111" cont="0"/>
        <request index="12" response="001100000000000011111100000000011111100" foes="001111111111000011111100000000011111100" cont="0"/>
        <request index="13" response="001100000000000011111100000000011111100" foes="001111111111000011111100000000011111100" cont="0"/>
        <request index="14" response="001111000000111111111100000000011110000" foes="001111000000111111111100000000011110000" cont="0"/>
        <request index="15" response="001111000000111111111100000000011110000" foes="001111000000111111111100000000011110000" cont="0"/>
        <request index="16" response="000000000000000000000000000000000000000" foes="001100000000110000000000000000011000000" cont="0"/>
        <request index="17" response="000000000000000000000000000000000000000" foes="111100000011110000000001111111111000000" cont="0"/>
        <request index="18" response="000000000000000000000000000000000000000" foes="111100000011110000000001111111111000000" cont="0"/>
        <request index="19" response="000000000000000000000000000000000110000" foes="111100001111110000000001111110000111111" cont="0"/>
        <request index="20" response="000000000000000000000000000000000110000" foes="111100001111110000000001111110000111111" cont="0"/>
        <request index="21" response="000000000000000000000000000000000111100" foes="000011111111110000000001111000000111100" cont="0"/>
        <request index="22" response="000000000000000000000000000000000111100" foes="000011111111110000000001111000000111100" cont="0"/>
        <request index="23" response="000000000000000000000000000000000110000" foes="000011000000000000000001100000000110000" cont="0"/>
        <request index="24" response="000000000000000000000000000000000110000" foes="000011000000000000000001100000000110000" cont="0"/>
        <request index="25" response="001100000000000011111110000000011110000" foes="001111000000000011111111100000011110000" cont="0"/>
        <request index="26" response="001100000000000011111110000000011110000" foes="001111000000000011111111100000011110000" cont="0"/>
        <request index="27" response="000000000000000011111100011000011110000" foes="111111000000000011111100011111111110000" cont="0"/>
        <request index="28" response="000000000000000011111100011000011110000" foes="111111000000000011111100011111111110000" cont="0"/>
        <request index="29" response="001100000000000011110000011110000001111" foes="111111000000000011110000011110000001111" cont="0"/>
        <request index="30" response="001100000000000011110000011110000001111" foes="111111000000000011110000011110000001111" cont="0"/>
        <request index="31" response="000000000000000011000000011000000001100" foes="000000000000000011000000011000000001100" cont="0"/>
        <request index="32" response="000000000000000011000000011000000001100" foes="000000000000000011000000011000000001100" cont="0"/>
        <request index="33" response="000000001111111111000000011000000111100" foes="000000001111111111000001111000000111100" cont="0"/>
        <request index="34" response="000000001111111111000000011000000111100" foes="000000001111111111000001111000000111100" cont="0"/>
        <request index="35" response="000000000011000000111110000000011111100" foes="000000001111110000111111111000011111100" cont="0"/>
        <request index="36" response="000000000011000000111110000000011111100" foes="000000001111110000111111111000011111100" cont="0"/>
        <request index="37" response="000000001111000000111100000111111111100" foes="000000001111000000111100000111111111100" cont="0"/>
        <request index="38" response="000000001111000000111100000111111111100" foes="000000001111000000111100000111111111100" cont="0"/>
    </junction>

    <connection from="n0_ts" to="ts_ne0" fromLane="0" toLane="0" via=":ts_16_0" tl="J1" linkIndex="16" dir="l" state="O"/>
    <connection from="n0_ts" to="ts_se0" fromLane="0" toLane="0" via=":ts_17_0" tl="J1" linkIndex="17" dir="s" state="O"/>
    <connection from="n0_ts" to="ts_se0" fromLane="1" toLane="1" via=":ts_17_1" tl="J1" linkIndex="18" dir="s" state="O"/>
    <connection from="n0_ts" to="ts_sw0" fromLane="1" toLane="0" via=":ts_19_0" tl="J1" linkIndex="19" dir="R" state="o"/>
    <connection from="n0_ts" to="ts_sw0" fromLane="1" toLane="1" via=":ts_19_1" tl="J1" linkIndex="20" dir="R" state="o"/>
    <connection from="n0_ts" to="ts_nw0" fromLane="1" toLane="0" via=":ts_21_0" tl="J1" linkIndex="21" dir="r" state="o"/>
    <connection from="n0_ts" to="ts_nw0" fromLane="1" toLane="1" via=":ts_21_1" tl="J1" linkIndex="22" dir="r" state="o"/>
    <connection from="ne0_ts" to="ts_se0" fromLane="0" toLane="0" via=":ts_8_0" tl="J1" linkIndex="8" dir="l" state="o"/>
    <connection from="ne0_ts" to="ts_se0" fromLane="0" toLane="1" via=":ts_8_1" tl="J1" linkIndex="9" dir="l" state="o"/>
    <connection from="ne0_ts" to="ts_sw0" fromLane="0" toLane="0" via=":ts_10_0" tl="J1" linkIndex="10" dir="s" state="o"/>
    <connection from="ne0_ts" to="ts_sw0" fromLane="0" toLane="1" via=":ts_10_1" tl="J1" linkIndex="11" dir="s" state="o"/>
    <connection from="ne0_ts" to="ts_nw0" fromLane="0" toLane="0" via=":ts_12_0" tl="J1" linkIndex="12" dir="R" state="o"/>
    <connection from="ne0_ts" to="ts_nw0" fromLane="1" toLane="1" via=":ts_12_1" tl="J1" linkIndex="13" dir="R" state="o"/>
    <connection from="ne0_ts" to="ts_n0" fromLane="1" toLane="0" via=":ts_14_0" tl="J1" linkIndex="14" dir="r" state="o"/>
    <connection from="ne0_ts" to="ts_n0" fromLane="1" toLane="1" via=":ts_14_1" tl="J1" linkIndex="15" dir="r" state="o"/>
    <connection from="nw0_ts" to="ts_n0" fromLane="0" toLane="0" via=":ts_23_0" tl="J1" linkIndex="23" dir="l" state="o"/>
    <connection from="nw0_ts" to="ts_n0" fromLane="0" toLane="1" via=":ts_23_1" tl="J1" linkIndex="24" dir="l" state="o"/>
    <connection from="nw0_ts" to="ts_ne0" fromLane="0" toLane="0" via=":ts_25_0" tl="J1" linkIndex="25" dir="s" state="o"/>
    <connection from="nw0_ts" to="ts_ne0" fromLane="0" toLane="1" via=":ts_25_1" tl="J1" linkIndex="26" dir="s" state="o"/>
    <connection from="nw0_ts" to="ts_se0" fromLane="0" toLane="0" via=":ts_27_0" tl="J1" linkIndex="27" dir="R" state="o"/>
    <connection from="nw0_ts" to="ts_se0" fromLane="1" toLane="1" via=":ts_27_1" tl="J1" linkIndex="28" dir="R" state="o"/>
    <connection from="nw0_ts" to="ts_sw0" fromLane="1" toLane="0" via=":ts_29_0" tl="J1" linkIndex="29" dir="r" state="o"/>
    <connection from="nw0_ts" to="ts_sw0" fromLane="1" toLane="1" via=":ts_29_1" tl="J1" linkIndex="30" dir="r" state="o"/>
    <connection from="se0_ts" to="ts_sw0" fromLane="0" toLane="0" via=":ts_0_0" tl="J1" linkIndex="0" dir="l" state="o"/>
    <connection from="se0_ts" to="ts_sw0" fromLane="0" toLane="1" via=":ts_0_1" tl="J1" linkIndex="1" dir="l" state="o"/>
    <connection from="se0_ts" to="ts_nw0" fromLane="0" toLane="0" via=":ts_2_0" tl="J1" linkIndex="2" dir="s" state="o"/>
    <connection from="se0_ts" to="ts_nw0" fromLane="0" toLane="1" via=":ts_2_1" tl="J1" linkIndex="3" dir="s" state="o"/>
    <connection from="se0_ts" to="ts_n0" fromLane="0" toLane="0" via=":ts_4_0" tl="J1" linkIndex="4" dir="R" state="O"/>
    <connection from="se0_ts" to="ts_n0" fromLane="1" toLane="1" via=":ts_4_1" tl="J1" linkIndex="5" dir="R" state="O"/>
    <connection from="se0_ts" to="ts_ne0" fromLane="1" toLane="0" via=":ts_6_0" tl="J1" linkIndex="6" dir="r" state="o"/>
    <connection from="se0_ts" to="ts_ne0" fromLane="1" toLane="1" via=":ts_6_1" tl="J1" linkIndex="7" dir="r" state="o"/>
    <connection from="sw0_ts" to="ts_nw0" fromLane="0" toLane="0" via=":ts_31_0" tl="J1" linkIndex="31" dir="l" state="o"/>
    <connection from="sw0_ts" to="ts_nw0" fromLane="0" toLane="1" via=":ts_31_1" tl="J1" linkIndex="32" dir="l" state="o"/>
    <connection from="sw0_ts" to="ts_n0" fromLane="0" toLane="0" via=":ts_33_0" tl="J1" linkIndex="33" dir="s" state="o"/>
    <connection from="sw0_ts" to="ts_n0" fromLane="1" toLane="1" via=":ts_33_1" tl="J1" linkIndex="34" dir="s" state="o"/>
    <connection from="sw0_ts" to="ts_ne0" fromLane="1" toLane="0" via=":ts_35_0" tl="J1" linkIndex="35" dir="R" state="o"/>
    <connection from="sw0_ts" to="ts_ne0" fromLane="1" toLane="1" via=":ts_35_1" tl="J1" linkIndex="36" dir="R" state="o"/>
    <connection from="sw0_ts" to="ts_se0" fromLane="1" toLane="0" via=":ts_37_0" tl="J1" linkIndex="37" dir="r" state="o"/>
    <connection from="sw0_ts" to="ts_se0" fromLane="1" toLane="1" via=":ts_37_1" tl="J1" linkIndex="38" dir="r" state="o"/>

    <connection from=":ts_0" to="ts_sw0" fromLane="0" toLane="0" dir="l" state="M"/>
    <connection from=":ts_0" to="ts_sw0" fromLane="1" toLane="1" dir="l" state="M"/>
    <connection from=":ts_2" to="ts_nw0" fromLane="0" toLane="0" dir="s" state="M"/>
    <connection from=":ts_2" to="ts_nw0" fromLane="1" toLane="1" dir="s" state="M"/>
    <connection from=":ts_4" to="ts_n0" fromLane="0" toLane="0" dir="R" state="M"/>
    <connection from=":ts_4" to="ts_n0" fromLane="1" toLane="1" dir="R" state="M"/>
    <connection from=":ts_6" to="ts_ne0" fromLane="0" toLane="0" dir="r" state="M"/>
    <connection from=":ts_6" to="ts_ne0" fromLane="1" toLane="1" dir="r" state="M"/>
    <connection from=":ts_8" to="ts_se0" fromLane="0" toLane="0" dir="l" state="M"/>
    <connection from=":ts_8" to="ts_se0" fromLane="1" toLane="1" dir="l" state="M"/>
    <connection from=":ts_10" to="ts_sw0" fromLane="0" toLane="0" dir="s" state="M"/>
    <connection from=":ts_10" to="ts_sw0" fromLane="1" toLane="1" dir="s" state="M"/>
    <connection from=":ts_12" to="ts_nw0" fromLane="0" toLane="0" dir="R" state="M"/>
    <connection from=":ts_12" to="ts_nw0" fromLane="1" toLane="1" dir="R" state="M"/>
    <connection from=":ts_14" to="ts_n0" fromLane="0" toLane="0" dir="r" state="M"/>
    <connection from=":ts_14" to="ts_n0" fromLane="1" toLane="1" dir="r" state="M"/>
    <connection from=":ts_16" to="ts_ne0" fromLane="0" toLane="0" dir="l" state="M"/>
    <connection from=":ts_17" to="ts_se0" fromLane="0" toLane="0" dir="s" state="M"/>
    <connection from=":ts_17" to="ts_se0" fromLane="1" toLane="1" dir="s" state="M"/>
    <connection from=":ts_19" to="ts_sw0" fromLane="0" toLane="0" dir="R" state="M"/>
    <connection from=":ts_19" to="ts_sw0" fromLane="1" toLane="1" dir="R" state="M"/>
    <connection from=":ts_21" to="ts_nw0" fromLane="0" toLane="0" dir="r" state="M"/>
    <connection from=":ts_21" to="ts_nw0" fromLane="1" toLane="1" dir="r" state="M"/>
    <connection from=":ts_23" to="ts_n0" fromLane="0" toLane="0" dir="l" state="M"/>
    <connection from=":ts_23" to="ts_n0" fromLane="1" toLane="1" dir="l" state="M"/>
    <connection from=":ts_25" to="ts_ne0" fromLane="0" toLane="0" dir="s" state="M"/>
    <connection from=":ts_25" to="ts_ne0" fromLane="1" toLane="1" dir="s" state="M"/>
    <connection from=":ts_27" to="ts_se0" fromLane="0" toLane="0" dir="R" state="M"/>
    <connection from=":ts_27" to="ts_se0" fromLane="1" toLane="1" dir="R" state="M"/>
    <connection from=":ts_29" to="ts_sw0" fromLane="0" toLane="0" dir="r" state="M"/>
    <connection from=":ts_29" to="ts_sw0" fromLane="1" toLane="1" dir="r" state="M"/>
    <connection from=":ts_31" to="ts_nw0" fromLane="0" toLane="0" dir="l" state="M"/>
    <connection from=":ts_31" to="ts_nw0" fromLane="1" toLane="1" dir="l" state="M"/>
    <connection from=":ts_33" to="ts_n0" fromLane="0" toLane="0" dir="s" state="M"/>
    <connection from=":ts_33" to="ts_n0" fromLane="1" toLane="1" dir="s" state="M"/>
    <connection from=":ts_35" to="ts_ne0" fromLane="0" toLane="0" dir="R" state="M"/>
    <connection from=":ts_35" to="ts_ne0" fromLane="1" toLane="1" dir="R" state="M"/>
    <connection from=":ts_37" to="ts_se0" fromLane="0" toLane="0" dir="r" state="M"/>
    <connection from=":ts_37" to="ts_se0" fromLane="1" toLane="1" dir="r" state="M"/>

</net>
