<?xml version="1.0" encoding="UTF-8"?>

<!-- generated on 2024-11-20 10:47:43 by Eclipse SUMO netedit Version 1.20.0
<configuration xmlns:xsi="http://www.w3.org/2001/XMLSchema-instance" xsi:noNamespaceSchemaLocation="http://sumo.dlr.de/xsd/neteditConfiguration.xsd">

    <input>
        <sumo-net-file value="/Users/chashu/Desktop/dev/sumorl-venv/app/data/3road_intersection/net/2way.net.xml"/>
    </input>

    <output>
        <output-file value="/Users/chashu/Desktop/dev/sumorl-venv/app/data/3road_intersection/net/2way.net.xml"/>
    </output>

    <processing>
        <geometry.min-radius.fix.railways value="false"/>
        <geometry.max-grade.fix value="false"/>
        <offset.disable-normalization value="true"/>
        <lefthand value="1"/>
    </processing>

    <junctions>
        <no-turnarounds value="true"/>
        <junctions.corner-detail value="5"/>
        <junctions.limit-turn-speed value="5.50"/>
        <rectangular-lane-cut value="0"/>
    </junctions>

    <pedestrian>
        <walkingareas value="0"/>
    </pedestrian>

</configuration>
-->

<net version="1.20" junctionCornerDetail="5" lefthand="true" limitTurnSpeed="5.50" xmlns:xsi="http://www.w3.org/2001/XMLSchema-instance" xsi:noNamespaceSchemaLocation="http://sumo.dlr.de/xsd/net_file.xsd">

    <location netOffset="0.00,0.00" convBoundary="-100.00,-100.00,500.00,400.00" origBoundary="-10000000000.00,-10000000000.00,10000000000.00,10000000000.00" projParameter="!"/>

    <edge id=":ts_0" function="internal">
        <lane id=":ts_0_0" index="0" speed="7.73" length="7.26" shape="195.20,193.91 194.97,195.60 194.29,197.16 193.16,198.57 191.57,199.85"/>
        <lane id=":ts_0_1" index="1" speed="8.55" length="9.01" shape="195.20,193.91 195.08,197.21 194.74,199.74 194.16,201.51 193.34,202.51"/>
    </edge>
    <edge id=":ts_2" function="internal">
        <lane id=":ts_2_0" index="0" speed="10.98" length="15.23" shape="198.40,193.91 198.69,198.83 199.58,202.79 201.05,205.79 203.11,207.84"/>
        <lane id=":ts_2_1" index="1" speed="10.38" length="13.56" shape="198.40,193.91 198.81,197.22 200.02,200.20 202.05,202.85 204.88,205.18"/>
    </edge>
    <edge id=":ts_4" function="internal">
        <lane id=":ts_4_0" index="0" speed="7.73" length="7.26" shape="208.43,199.85 206.84,198.57 205.71,197.16 205.03,195.60 204.80,193.91"/>
        <lane id=":ts_4_1" index="1" speed="8.62" length="9.17" shape="208.43,199.85 205.44,197.77 203.31,196.09 202.03,194.80 201.60,193.91"/>
    </edge>
    <edge id=":ts_6" function="internal">
        <lane id=":ts_6_0" index="0" speed="10.09" length="16.20" shape="206.66,202.51 202.14,199.96 198.11,198.67 194.59,198.63 191.57,199.85"/>
        <lane id=":ts_6_1" index="1" speed="9.47" length="14.19" shape="206.66,202.51 203.33,200.85 200.00,200.30 196.67,200.85 193.34,202.51"/>
    </edge>
    <edge id=":ts_8" function="internal">
        <lane id=":ts_8_0" index="0" speed="6.65" length="6.62" shape="196.89,207.84 198.45,207.06 200.00,206.80 201.55,207.06 203.11,207.84"/>
        <lane id=":ts_8_1" index="1" speed="7.55" length="8.74" shape="196.89,207.84 199.64,206.18 201.89,205.18 203.63,204.84 204.88,205.18"/>
    </edge>
    <edge id=":ts_10" function="internal">
        <lane id=":ts_10_0" index="0" speed="11.01" length="15.32" shape="195.12,205.18 199.35,202.05 202.38,199.13 204.19,196.42 204.80,193.91"/>
        <lane id=":ts_10_1" index="1" speed="10.38" length="13.56" shape="195.12,205.18 197.95,202.85 199.98,200.20 201.19,197.22 201.60,193.91"/>
    </edge>

    <edge id="ne0_ts" from="ne0" to="ts" priority="-1" length="353.62">
        <lane id="ne0_ts_0" index="0" speed="13.89" length="353.62" shape="502.66,396.01 208.43,199.85"/>
        <lane id="ne0_ts_1" index="1" speed="13.89" length="353.62" shape="500.89,398.67 206.66,202.51"/>
    </edge>
    <edge id="nw0_ts" from="nw0" to="ts" priority="-1" length="353.62">
        <lane id="nw0_ts_0" index="0" speed="13.89" length="353.62" shape="-97.34,403.99 196.89,207.84"/>
        <lane id="nw0_ts_1" index="1" speed="13.89" length="353.62" shape="-99.11,401.33 195.12,205.18"/>
    </edge>
    <edge id="s0_ts" from="s0" to="ts" priority="-1" length="293.91">
        <lane id="s0_ts_0" index="0" speed="13.89" length="293.91" shape="195.20,-100.00 195.20,193.91"/>
        <lane id="s0_ts_1" index="1" speed="13.89" length="293.91" shape="198.40,-100.00 198.40,193.91"/>
    </edge>
    <edge id="ts_ne0" from="ts" to="ne0" priority="-1" length="353.62">
        <lane id="ts_ne0_0" index="0" speed="13.89" length="353.62" shape="203.11,207.84 497.34,403.99"/>
        <lane id="ts_ne0_1" index="1" speed="13.89" length="353.62" shape="204.88,205.18 499.11,401.33"/>
    </edge>
    <edge id="ts_nw0" from="ts" to="nw0" priority="-1" length="353.62">
        <lane id="ts_nw0_0" index="0" speed="13.89" length="353.62" shape="191.57,199.85 -102.66,396.01"/>
        <lane id="ts_nw0_1" index="1" speed="13.89" length="353.62" shape="193.34,202.51 -100.89,398.67"/>
    </edge>
    <edge id="ts_s0" from="ts" to="s0" priority="-1" length="293.91">
        <lane id="ts_s0_0" index="0" speed="13.89" length="293.91" shape="204.80,193.91 204.80,-100.00"/>
        <lane id="ts_s0_1" index="1" speed="13.89" length="293.91" shape="201.60,193.91 201.60,-100.00"/>
    </edge>

    <tlLogic id="ts" type="static" programID="0" offset="0">
        <phase duration="2"  state="rrrrrrrrGGGG"/>
        <phase duration="2"  state="rrrrrrrryyyy"/>
        <phase duration="2"  state="GGGGrrrrrrrr"/>
        <phase duration="2"  state="yyyyrrrrrrrr"/>
        <phase duration="2"  state="rrrrGGGGrrrr"/>
        <phase duration="2"  state="rrrryyyyrrrr"/>
    </tlLogic>

    <junction id="ne0" type="dead_end" x="500.00" y="400.00" incLanes="ts_ne0_0 ts_ne0_1" intLanes="" shape="500.00,400.00 496.45,405.33 500.00,400.00"/>
    <junction id="nw0" type="dead_end" x="-100.00" y="400.00" incLanes="ts_nw0_0 ts_nw0_1" intLanes="" shape="-100.00,400.00 -103.55,394.67 -100.00,400.00"/>
    <junction id="s0" type="dead_end" x="200.00" y="-100.00" incLanes="ts_s0_0 ts_s0_1" intLanes="" shape="200.00,-100.00 206.40,-100.00 200.00,-100.00"/>
    <junction id="ts" type="traffic_light" x="200.00" y="200.00" incLanes="s0_ts_0 s0_ts_1 ne0_ts_0 ne0_ts_1 nw0_ts_0 nw0_ts_1" intLanes=":ts_0_0 :ts_0_1 :ts_2_0 :ts_2_1 :ts_4_0 :ts_4_1 :ts_6_0 :ts_6_1 :ts_8_0 :ts_8_1 :ts_10_0 :ts_10_1" shape="193.60,193.91 206.40,193.91 206.72,195.61 207.13,196.39 207.70,197.14 208.43,197.85 209.32,198.52 202.22,209.17 200.74,208.51 200.00,208.43 199.26,208.51 198.52,208.76 197.78,209.17 190.68,198.52 192.30,197.14 192.87,196.39 193.28,195.61 193.52,194.78">
        <request index="0"  response="000000000000" foes="000011000000" cont="0"/>
        <request index="1"  response="000000000000" foes="000011000000" cont="0"/>
        <request index="2"  response="000000000000" foes="111111000000" cont="0"/>
        <request index="3"  response="000000000000" foes="111111000000" cont="0"/>
        <request index="4"  response="000000000000" foes="110000000000" cont="0"/>
        <request index="5"  response="000000000000" foes="110000000000" cont="0"/>
        <request index="6"  response="000000001111" foes="110000001111" cont="0"/>
        <request index="7"  response="000000001111" foes="110000001111" cont="0"/>
        <request index="8"  response="000000001100" foes="000000001100" cont="0"/>
        <request index="9"  response="000000001100" foes="000000001100" cont="0"/>
        <request index="10" response="000011111100" foes="000011111100" cont="0"/>
        <request index="11" response="000011111100" foes="000011111100" cont="0"/>
    </junction>

    <connection from="ne0_ts" to="ts_s0" fromLane="0" toLane="0" via=":ts_4_0" tl="ts" linkIndex="4" dir="l" state="O"/>
    <connection from="ne0_ts" to="ts_s0" fromLane="0" toLane="1" via=":ts_4_1" tl="ts" linkIndex="5" dir="l" state="O"/>
    <connection from="ne0_ts" to="ts_nw0" fromLane="1" toLane="0" via=":ts_6_0" tl="ts" linkIndex="6" dir="r" state="o"/>
    <connection from="ne0_ts" to="ts_nw0" fromLane="1" toLane="1" via=":ts_6_1" tl="ts" linkIndex="7" dir="r" state="o"/>
    <connection from="nw0_ts" to="ts_ne0" fromLane="0" toLane="0" via=":ts_8_0" tl="ts" linkIndex="8" dir="l" state="o"/>
    <connection from="nw0_ts" to="ts_ne0" fromLane="0" toLane="1" via=":ts_8_1" tl="ts" linkIndex="9" dir="l" state="o"/>
    <connection from="nw0_ts" to="ts_s0" fromLane="1" toLane="0" via=":ts_10_0" tl="ts" linkIndex="10" dir="r" state="o"/>
    <connection from="nw0_ts" to="ts_s0" fromLane="1" toLane="1" via=":ts_10_1" tl="ts" linkIndex="11" dir="r" state="o"/>
    <connection from="s0_ts" to="ts_nw0" fromLane="0" toLane="0" via=":ts_0_0" tl="ts" linkIndex="0" dir="l" state="O"/>
    <connection from="s0_ts" to="ts_nw0" fromLane="0" toLane="1" via=":ts_0_1" tl="ts" linkIndex="1" dir="l" state="O"/>
    <connection from="s0_ts" to="ts_ne0" fromLane="1" toLane="0" via=":ts_2_0" tl="ts" linkIndex="2" dir="r" state="O"/>
    <connection from="s0_ts" to="ts_ne0" fromLane="1" toLane="1" via=":ts_2_1" tl="ts" linkIndex="3" dir="r" state="O"/>

    <connection from=":ts_0" to="ts_nw0" fromLane="0" toLane="0" dir="l" state="M"/>
    <connection from=":ts_0" to="ts_nw0" fromLane="1" toLane="1" dir="l" state="M"/>
    <connection from=":ts_2" to="ts_ne0" fromLane="0" toLane="0" dir="r" state="M"/>
    <connection from=":ts_2" to="ts_ne0" fromLane="1" toLane="1" dir="r" state="M"/>
    <connection from=":ts_4" to="ts_s0" fromLane="0" toLane="0" dir="l" state="M"/>
    <connection from=":ts_4" to="ts_s0" fromLane="1" toLane="1" dir="l" state="M"/>
    <connection from=":ts_6" to="ts_nw0" fromLane="0" toLane="0" dir="r" state="M"/>
    <connection from=":ts_6" to="ts_nw0" fromLane="1" toLane="1" dir="r" state="M"/>
    <connection from=":ts_8" to="ts_ne0" fromLane="0" toLane="0" dir="l" state="M"/>
    <connection from=":ts_8" to="ts_ne0" fromLane="1" toLane="1" dir="l" state="M"/>
    <connection from=":ts_10" to="ts_s0" fromLane="0" toLane="0" dir="r" state="M"/>
    <connection from=":ts_10" to="ts_s0" fromLane="1" toLane="1" dir="r" state="M"/>

</net>
