<?xml version="1.0" encoding="UTF-8"?>

<!-- generated on 2024-10-31 13:52:57.592364 by randomTrips.py UNKNOWN
<configuration>
    <net-file value="/Users/chashu/2024-11-01-10-25-19/osm.net.xml.gz"/>
    <output-trip-file value="./data/rou/output.rou.xml"/>
    <route-file value="100"/>
    <period value="10.0"/>
</configuration>
-->

<routes>
    <vType id="car_60kmh" maxSpeed="70" />

    <route id = "route_nw" edges = "nl lw"/>
    <route id = "route_ns" edges = "nl ls"/>
    <route id = "route_ne" edges = "nl le"/>
    <route id = "route_ws" edges = "wl ls"/>
    <route id = "route_we" edges = "wl le"/>
    <route id = "route_wn" edges = "wl ln"/>
    <route id = "route_se" edges = "sl le"/>
    <route id = "route_sn" edges = "sl ln"/>
    <route id = "route_sw" edges = "sl lw"/>
    <route id = "route_en" edges = "el ln"/>
    <route id = "route_ew" edges = "el lw"/>
    <route id = "route_es" edges = "el ls"/>

    <flow id = "flow_nw" route = "route_nw" begin = "0" end = "1000000" vehsPerHour = "50" deaprtSpeed = "max" departLane = "best" type = "car_60kmh"/>
    <flow id = "flow_ns" route = "route_ns" begin = "0" end = "1000000" vehsPerHour = "50" deaprtSpeed = "max" departLane = "best" type = "car_60kmh"/>
    <flow id = "flow_ne" route = "route_ne" begin = "0" end = "1000000" vehsPerHour = "50" deaprtSpeed = "max" departLane = "best" type = "car_60kmh"/>
    <flow id = "flow_ws" route = "route_ws" begin = "0" end = "1000000" vehsPerHour = "200" deaprtSpeed = "max" departLane = "best" type = "car_60kmh"/>
    <flow id = "flow_we" route = "route_we" begin = "0" end = "1000000" vehsPerHour = "200" deaprtSpeed = "max" departLane = "best" type = "car_60kmh"/>
    <flow id = "flow_wn" route = "route_wn" begin = "0" end = "1000000" vehsPerHour = "200" deaprtSpeed = "max" departLane = "best" type = "car_60kmh"/>
    <flow id = "flow_se" route = "route_se" begin = "0" end = "1000000" vehsPerHour = "50" deaprtSpeed = "max" departLane = "best" type = "car_60kmh"/>
    <flow id = "flow_sn" route = "route_sn" begin = "0" end = "1000000" vehsPerHour = "50" deaprtSpeed = "max" departLane = "best" type = "car_60kmh"/>
    <flow id = "flow_sw" route = "route_sw" begin = "0" end = "1000000" vehsPerHour = "50" deaprtSpeed = "max" departLane = "best" type = "car_60kmh"/>
    <flow id = "flow_en" route = "route_en" begin = "0" end = "1000000" vehsPerHour = "200" deaprtSpeed = "max" departLane = "best" type = "car_60kmh"/>
    <flow id = "flow_ew" route = "route_ew" begin = "0" end = "1000000" vehsPerHour = "200" deaprtSpeed = "max" departLane = "best" type = "car_60kmh"/>
    <flow id = "flow_es" route = "route_es" begin = "0" end = "1000000" vehsPerHour = "200" deaprtSpeed = "max" departLane = "best" type = "car_60kmh"/>

</routes>