<?xml version="1.0" encoding="UTF-8"?>

<!-- generated on 2024-11-20 08:25:21 by Eclipse SUMO netedit Version 1.20.0
<configuration xmlns:xsi="http://www.w3.org/2001/XMLSchema-instance" xsi:noNamespaceSchemaLocation="http://sumo.dlr.de/xsd/neteditConfiguration.xsd">

    <input>
        <sumo-net-file value="/Users/chashu/Desktop/dev/sumorl-venv/app/data/test/net/test.net.xml"/>
    </input>

    <output>
        <output-file value="/Users/chashu/Desktop/dev/sumorl-venv/app/data/test/net/test.net.xml"/>
    </output>

    <processing>
        <geometry.min-radius.fix.railways value="false"/>
        <geometry.max-grade.fix value="false"/>
        <offset.disable-normalization value="true"/>
        <lefthand value="1"/>
    </processing>

    <junctions>
        <no-turnarounds value="true"/>
        <junctions.corner-detail value="5"/>
        <junctions.limit-turn-speed value="5.50"/>
        <rectangular-lane-cut value="0"/>
    </junctions>

    <pedestrian>
        <walkingareas value="0"/>
    </pedestrian>

</configuration>
-->

<net version="1.20" junctionCornerDetail="5" lefthand="true" limitTurnSpeed="5.50" xmlns:xsi="http://www.w3.org/2001/XMLSchema-instance" xsi:noNamespaceSchemaLocation="http://sumo.dlr.de/xsd/net_file.xsd">

    <location netOffset="-669545.56,-3894148.20" convBoundary="-100.00,-200.00,500.00,300.00" origBoundary="136.861930,35.175986,136.866243,35.178596" projParameter="+proj=utm +zone=53 +ellps=WGS84 +datum=WGS84 +units=m +no_defs"/>

    <type id="highway.residential" priority="3" numLanes="1" speed="13.89" disallow="tram rail_urban rail rail_electric rail_fast ship container cable_car subway aircraft wheelchair scooter drone" oneway="0"/>
    <type id="highway.secondary" priority="11" numLanes="1" speed="27.78" disallow="tram rail_urban rail rail_electric rail_fast ship container cable_car subway aircraft wheelchair scooter drone" oneway="0"/>
    <type id="highway.service" priority="1" numLanes="1" speed="5.56" allow="pedestrian delivery bicycle" oneway="0"/>
    <type id="highway.tertiary" priority="10" numLanes="1" speed="22.22" disallow="tram rail_urban rail rail_electric rail_fast ship container cable_car subway aircraft wheelchair scooter drone" oneway="0"/>

    <edge id=":ts_0" function="internal">
        <lane id=":ts_0_0" index="0" speed="7.73" length="7.26" shape="195.20,93.91 194.97,95.60 194.29,97.16 193.16,98.57 191.57,99.85"/>
        <lane id=":ts_0_1" index="1" speed="9.15" length="10.41" shape="198.40,93.91 198.08,96.41 197.14,98.68 195.56,100.71 193.34,102.51"/>
    </edge>
    <edge id=":ts_2" function="internal">
        <lane id=":ts_2_0" index="0" speed="10.38" length="13.56" shape="198.40,93.91 198.81,97.22 200.02,100.20 202.05,102.85 204.88,105.18"/>
    </edge>
    <edge id=":ts_3" function="internal">
        <lane id=":ts_3_0" index="0" speed="7.73" length="7.26" shape="208.43,99.85 206.84,98.57 205.71,97.16 205.03,95.60 204.80,93.91"/>
    </edge>
    <edge id=":ts_4" function="internal">
        <lane id=":ts_4_0" index="0" speed="9.47" length="14.19" shape="206.66,102.51 203.33,100.85 200.00,100.30 196.67,100.85 193.34,102.51"/>
    </edge>
    <edge id=":ts_5" function="internal">
        <lane id=":ts_5_0" index="0" speed="6.65" length="6.62" shape="196.89,107.84 198.45,107.06 200.00,106.80 201.55,107.06 203.11,107.84"/>
    </edge>
    <edge id=":ts_6" function="internal">
        <lane id=":ts_6_0" index="0" speed="11.48" length="16.71" shape="196.89,107.84 200.35,104.99 202.82,101.72 204.31,98.03 204.80,93.91"/>
        <lane id=":ts_6_1" index="1" speed="10.38" length="13.56" shape="195.12,105.18 197.95,102.85 199.98,100.20 201.19,97.22 201.60,93.91"/>
    </edge>

    <edge id="ne0_ts" from="ne0" to="ts" priority="-1">
        <lane id="ne0_ts_0" index="0" speed="13.89" length="353.62" shape="502.66,296.01 208.43,99.85"/>
        <lane id="ne0_ts_1" index="1" speed="13.89" length="353.62" shape="500.89,298.67 206.66,102.51"/>
    </edge>
    <edge id="nw0_ts" from="nw0" to="ts" priority="-1">
        <lane id="nw0_ts_0" index="0" speed="13.89" length="353.62" shape="-97.34,303.99 196.89,107.84"/>
        <lane id="nw0_ts_1" index="1" speed="13.89" length="353.62" shape="-99.11,301.33 195.12,105.18"/>
    </edge>
    <edge id="s0_ts" from="s0" to="ts" priority="-1">
        <lane id="s0_ts_0" index="0" speed="13.89" length="293.91" shape="195.20,-200.00 195.20,93.91"/>
        <lane id="s0_ts_1" index="1" speed="13.89" length="293.91" shape="198.40,-200.00 198.40,93.91"/>
    </edge>
    <edge id="ts_ne0" from="ts" to="ne0" priority="-1">
        <lane id="ts_ne0_0" index="0" speed="13.89" length="353.62" shape="203.11,107.84 497.34,303.99"/>
        <lane id="ts_ne0_1" index="1" speed="13.89" length="353.62" shape="204.88,105.18 499.11,301.33"/>
    </edge>
    <edge id="ts_nw0" from="ts" to="nw0" priority="-1">
        <lane id="ts_nw0_0" index="0" speed="13.89" length="353.62" shape="191.57,99.85 -102.66,296.01"/>
        <lane id="ts_nw0_1" index="1" speed="13.89" length="353.62" shape="193.34,102.51 -100.89,298.67"/>
    </edge>
    <edge id="ts_s0" from="ts" to="s0" priority="-1">
        <lane id="ts_s0_0" index="0" speed="13.89" length="293.91" shape="204.80,93.91 204.80,-200.00"/>
        <lane id="ts_s0_1" index="1" speed="13.89" length="293.91" shape="201.60,93.91 201.60,-200.00"/>
    </edge>

    <tlLogic id="ts" type="static" programID="0" offset="0">
        <phase duration="27" state="GGGGrGrr"/>
        <phase duration="3"  state="yyyGrGrr"/>
        <phase duration="27" state="rrrGGGrr"/>
        <phase duration="3"  state="rrryyGrr"/>
        <phase duration="27" state="GGrrrGGG"/>
        <phase duration="3"  state="GGrrrGyy"/>
    </tlLogic>

    <junction id="ne0" type="dead_end" x="500.00" y="300.00" incLanes="ts_ne0_0 ts_ne0_1" intLanes="" shape="500.00,300.00 496.45,305.33 500.00,300.00"/>
    <junction id="nw0" type="dead_end" x="-100.00" y="300.00" incLanes="ts_nw0_0 ts_nw0_1" intLanes="" shape="-100.00,300.00 -103.55,294.67 -100.00,300.00"/>
    <junction id="s0" type="dead_end" x="200.00" y="-200.00" incLanes="ts_s0_0 ts_s0_1" intLanes="" shape="200.00,-200.00 206.40,-200.00 200.00,-200.00"/>
    <junction id="ts" type="traffic_light" x="200.00" y="100.00" incLanes="s0_ts_0 s0_ts_1 ne0_ts_0 ne0_ts_1 nw0_ts_0 nw0_ts_1" intLanes=":ts_0_0 :ts_0_1 :ts_2_0 :ts_3_0 :ts_4_0 :ts_5_0 :ts_6_0 :ts_6_1" shape="193.60,93.91 206.40,93.91 206.72,95.61 207.13,96.39 207.70,97.14 208.43,97.85 209.32,98.52 202.22,109.17 200.74,108.51 200.00,108.43 199.26,108.51 198.52,108.76 197.78,109.17 190.68,98.52 192.30,97.14 192.87,96.39 193.28,95.61 193.52,94.78">
        <request index="0" response="00000000" foes="00010000" cont="0"/>
        <request index="1" response="00000000" foes="00010000" cont="0"/>
        <request index="2" response="00000000" foes="11010000" cont="0"/>
        <request index="3" response="00000000" foes="11000000" cont="0"/>
        <request index="4" response="00000111" foes="11000111" cont="0"/>
        <request index="5" response="00000000" foes="00000000" cont="0"/>
        <request index="6" response="00011100" foes="00011100" cont="0"/>
        <request index="7" response="00011100" foes="00011100" cont="0"/>
    </junction>

    <connection from="ne0_ts" to="ts_s0" fromLane="0" toLane="0" via=":ts_3_0" tl="ts" linkIndex="3" dir="l" state="O"/>
    <connection from="ne0_ts" to="ts_nw0" fromLane="1" toLane="1" via=":ts_4_0" tl="ts" linkIndex="4" dir="r" state="o"/>
    <connection from="nw0_ts" to="ts_ne0" fromLane="0" toLane="0" via=":ts_5_0" tl="ts" linkIndex="5" dir="l" state="O"/>
    <connection from="nw0_ts" to="ts_s0" fromLane="0" toLane="0" via=":ts_6_0" tl="ts" linkIndex="6" dir="r" state="o"/>
    <connection from="nw0_ts" to="ts_s0" fromLane="1" toLane="1" via=":ts_6_1" tl="ts" linkIndex="7" dir="r" state="o"/>
    <connection from="s0_ts" to="ts_nw0" fromLane="0" toLane="0" via=":ts_0_0" tl="ts" linkIndex="0" dir="l" state="O"/>
    <connection from="s0_ts" to="ts_nw0" fromLane="1" toLane="1" via=":ts_0_1" tl="ts" linkIndex="1" dir="l" state="O"/>
    <connection from="s0_ts" to="ts_ne0" fromLane="1" toLane="1" via=":ts_2_0" tl="ts" linkIndex="2" dir="r" state="O"/>

    <connection from=":ts_0" to="ts_nw0" fromLane="0" toLane="0" dir="l" state="M"/>
    <connection from=":ts_0" to="ts_nw0" fromLane="1" toLane="1" dir="l" state="M"/>
    <connection from=":ts_2" to="ts_ne0" fromLane="0" toLane="1" dir="r" state="M"/>
    <connection from=":ts_3" to="ts_s0" fromLane="0" toLane="0" dir="l" state="M"/>
    <connection from=":ts_4" to="ts_nw0" fromLane="0" toLane="1" dir="r" state="M"/>
    <connection from=":ts_5" to="ts_ne0" fromLane="0" toLane="0" dir="l" state="M"/>
    <connection from=":ts_6" to="ts_s0" fromLane="0" toLane="0" dir="r" state="M"/>
    <connection from=":ts_6" to="ts_s0" fromLane="1" toLane="1" dir="r" state="M"/>

</net>
