<?xml version="1.0" encoding="UTF-8"?>

<!-- generated on 2024-10-31 13:52:57.592364 by randomTrips.py UNKNOWN
<configuration>
    <net-file value="/Users/chashu/2024-11-01-10-25-19/osm.net.xml.gz"/>
    <output-trip-file value="./data/rou/output.rou.xml"/>
    <route-file value="100"/>
    <period value="10.0"/>
</configuration>
-->

<routes>
    <vType id="car_60kmh" maxSpeed="70" />

    <route id = "route_nen" edges = "ne0_ts ts_n0"/>
    <route id = "route_nenw" edges = "ne0_ts ts_nw0"/>
    <route id = "route_nesw" edges = "ne0_ts ts_sw0"/>
    <route id = "route_nes" edges = "ne0_ts ts_s0"/>
    <route id = "route_nese" edges = "ne0_ts ts_se0"/>

    <route id = "route_nnw" edges = "n0_ts ts_nw0"/>
    <route id = "route_nsw" edges = "n0_ts ts_sw0"/>
    <route id = "route_ns" edges = "n0_ts ts_s0"/>
    <route id = "route_nse" edges = "n0_ts ts_se0"/>
    <route id = "route_nne" edges = "n0_ts ts_ne0"/>

    <route id = "route_nwsw" edges = "nw0_ts ts_sw0"/>
    <route id = "route_nws" edges = "nw0_ts ts_s0"/>
    <route id = "route_nwse" edges = "nw0_ts ts_se0"/>
    <route id = "route_nwne" edges = "nw0_ts ts_ne0"/>
    <route id = "route_nwn" edges = "nw0_ts ts_n0"/>

    <route id = "route_sws" edges = "sw0_ts ts_s0"/>
    <route id = "route_swse" edges = "sw0_ts ts_se0"/>
    <route id = "route_swne" edges = "sw0_ts ts_ne0"/>
    <route id = "route_swn" edges = "sw0_ts ts_n0"/>
    <route id = "route_swnw" edges = "sw0_ts ts_nw0"/>

    <route id = "route_sse" edges = "s0_ts ts_se0"/>
    <route id = "route_sne" edges = "s0_ts ts_ne0"/>
    <route id = "route_sn" edges = "s0_ts ts_n0"/>
    <route id = "route_snw" edges = "s0_ts ts_nw0"/>
    <route id = "route_ssw" edges = "s0_ts ts_sw0"/>

    <route id = "route_sene" edges = "se0_ts ts_ne0"/>
    <route id = "route_sen" edges = "se0_ts ts_n0"/>
    <route id = "route_senw" edges = "se0_ts ts_nw0"/>
    <route id = "route_sesw" edges = "se0_ts ts_sw0"/>
    <route id = "route_ses" edges = "se0_ts ts_s0"/>

    <!-- 一車線あたり主道路800台・従道路400台、主道路70% -->
    <flow id = "flow_nen" route = "route_nen" begin = "0" end = "1000000" vehsPerHour = "60" deaprtSpeed = "max" departLane = "best" type = "car_60kmh"/>
    <flow id = "flow_nenw" route = "route_nenw" begin = "0" end = "1000000" vehsPerHour = "60" deaprtSpeed = "max" departLane = "best" type = "car_60kmh"/>
    <flow id = "flow_nesw" route = "route_nesw" begin = "0" end = "1000000" vehsPerHour = "560" deaprtSpeed = "max" departLane = "best" type = "car_60kmh"/>
    <flow id = "flow_nes" route = "route_nes" begin = "0" end = "1000000" vehsPerHour = "60" deaprtSpeed = "max" departLane = "best" type = "car_60kmh"/>
    <flow id = "flow_nese" route = "route_nese" begin = "0" end = "1000000" vehsPerHour = "60" deaprtSpeed = "max" departLane = "best" type = "car_60kmh"/>
    <flow id = "flow_nnw" route = "route_nnw" begin = "0" end = "1000000" vehsPerHour = "30" deaprtSpeed = "max" departLane = "best" type = "car_60kmh"/>
    <flow id = "flow_nsw" route = "route_nsw" begin = "0" end = "1000000" vehsPerHour = "280" deaprtSpeed = "max" departLane = "best" type = "car_60kmh"/>
    <flow id = "flow_ns" route = "route_ns" begin = "0" end = "1000000" vehsPerHour = "30" deaprtSpeed = "max" departLane = "best" type = "car_60kmh"/>
    <flow id = "flow_nse" route = "route_nse" begin = "0" end = "1000000" vehsPerHour = "30" deaprtSpeed = "max" departLane = "best" type = "car_60kmh"/>
    <flow id = "flow_nne" route = "route_nne" begin = "0" end = "1000000" vehsPerHour = "280" deaprtSpeed = "max" departLane = "best" type = "car_60kmh"/>
    <flow id = "flow_nwsw" route = "route_nwsw" begin = "0" end = "1000000" vehsPerHour = "280" deaprtSpeed = "max" departLane = "best" type = "car_60kmh"/>
    <flow id = "flow_nws" route = "route_nws" begin = "0" end = "1000000" vehsPerHour = "30" deaprtSpeed = "max" departLane = "best" type = "car_60kmh"/>
    <flow id = "flow_nwse" route = "route_nwse" begin = "0" end = "1000000" vehsPerHour = "30" deaprtSpeed = "max" departLane = "best" type = "car_60kmh"/>
    <flow id = "flow_nwne" route = "route_nwne" begin = "0" end = "1000000" vehsPerHour = "280" deaprtSpeed = "max" departLane = "best" type = "car_60kmh"/>
    <flow id = "flow_nwn" route = "route_nwn" begin = "0" end = "1000000" vehsPerHour = "30" deaprtSpeed = "max" departLane = "best" type = "car_60kmh"/>
    <flow id = "flow_sws" route = "route_sws" begin = "0" end = "1000000" vehsPerHour = "60" deaprtSpeed = "max" departLane = "best" type = "car_60kmh"/>
    <flow id = "flow_swse" route = "route_swse" begin = "0" end = "1000000" vehsPerHour = "60" deaprtSpeed = "max" departLane = "best" type = "car_60kmh"/>
    <flow id = "flow_swne" route = "route_swne" begin = "0" end = "1000000" vehsPerHour = "560" deaprtSpeed = "max" departLane = "best" type = "car_60kmh"/>
    <flow id = "flow_swn" route = "route_swn" begin = "0" end = "1000000" vehsPerHour = "60" deaprtSpeed = "max" departLane = "best" type = "car_60kmh"/>
    <flow id = "flow_swnw" route = "route_swnw" begin = "0" end = "1000000" vehsPerHour = "60" deaprtSpeed = "max" departLane = "best" type = "car_60kmh"/>
    <flow id = "flow_sse" route = "route_sse" begin = "0" end = "1000000" vehsPerHour = "30" deaprtSpeed = "max" departLane = "best" type = "car_60kmh"/>
    <flow id = "flow_sne" route = "route_sne" begin = "0" end = "1000000" vehsPerHour = "280" deaprtSpeed = "max" departLane = "best" type = "car_60kmh"/>
    <flow id = "flow_sn" route = "route_sn" begin = "0" end = "1000000" vehsPerHour = "30" deaprtSpeed = "max" departLane = "best" type = "car_60kmh"/>
    <flow id = "flow_snw" route = "route_snw" begin = "0" end = "1000000" vehsPerHour = "30" deaprtSpeed = "max" departLane = "best" type = "car_60kmh"/>
    <flow id = "flow_ssw" route = "route_ssw" begin = "0" end = "1000000" vehsPerHour = "280" deaprtSpeed = "max" departLane = "best" type = "car_60kmh"/>
    <flow id = "flow_sene" route = "route_sene" begin = "0" end = "1000000" vehsPerHour = "280" deaprtSpeed = "max" departLane = "best" type = "car_60kmh"/>
    <flow id = "flow_sen" route = "route_sen" begin = "0" end = "1000000" vehsPerHour = "30" deaprtSpeed = "max" departLane = "best" type = "car_60kmh"/>
    <flow id = "flow_senw" route = "route_senw" begin = "0" end = "1000000" vehsPerHour = "30" deaprtSpeed = "max" departLane = "best" type = "car_60kmh"/>
    <flow id = "flow_sesw" route = "route_sesw" begin = "0" end = "1000000" vehsPerHour = "280" deaprtSpeed = "max" departLane = "best" type = "car_60kmh"/>
    <flow id = "flow_ses" route = "route_ses" begin = "0" end = "1000000" vehsPerHour = "30" deaprtSpeed = "max" departLane = "best" type = "car_60kmh"/>
    
</routes>